<routes>
    <flow id="f_0_1" begin="0.0" end="1440.0" departLane="free" departPos="free" departSpeed="speedLimit" route="r_0" vehsPerHour="75"/>
    <flow id="f_0_2" begin="1440.0" end="1440.0" departLane="free" departPos="free" departSpeed="speedLimit" route="r_0" vehsPerHour="50"/>
    <flow id="f_2_1" begin="3600.0" end="5040.0" departLane="free" departPos="free" departSpeed="speedLimit" route="r_0" vehsPerHour="50"/>
    <flow id="f_2_2" begin="5040.0" end="5040.0" departLane="free" departPos="free" departSpeed="speedLimit" route="r_0" vehsPerHour="25"/>
    <flow id="f_4_1" begin="7200.0" end="8640.0" departLane="free" departPos="free" departSpeed="speedLimit" route="r_0" vehsPerHour="25"/>
    <flow id="f_4_2" begin="8640.0" end="8640.0" departLane="free" departPos="free" departSpeed="speedLimit" route="r_0" vehsPerHour="10"/>
    <flow id="f_6_1" begin="10800.0" end="12240.0" departLane="free" departPos="free" departSpeed="speedLimit" route="r_0" vehsPerHour="10"/>
    <flow id="f_6_2" begin="12240.0" end="12240.0" departLane="free" departPos="free" departSpeed="speedLimit" route="r_0" vehsPerHour="15"/>
    <flow id="f_8_1" begin="14400.0" end="15840.0" departLane="free" departPos="free" departSpeed="speedLimit" route="r_0" vehsPerHour="35"/>
    <flow id="f_8_2" begin="15840.0" end="15840.0" departLane="free" departPos="free" departSpeed="speedLimit" route="r_0" vehsPerHour="50"/>
    <flow id="f_10_1" begin="18000.0" end="19440.0" departLane="free" departPos="free" departSpeed="speedLimit" route="r_0" vehsPerHour="75"/>
    <flow id="f_10_2" begin="19440.0" end="19440.0" departLane="free" departPos="free" departSpeed="speedLimit" route="r_0" vehsPerHour="125"/>
    <flow id="f_12_1" begin="21600.0" end="23040.0" departLane="free" departPos="free" departSpeed="speedLimit" route="r_0" vehsPerHour="300"/>
    <flow id="f_12_2" begin="23040.0" end="23040.0" departLane="free" departPos="free" departSpeed="speedLimit" route="r_0" vehsPerHour="480"/>
    <flow id="f_14_1" begin="25200.0" end="26640.0" departLane="free" departPos="free" departSpeed="speedLimit" route="r_0" vehsPerHour="900"/>
    <flow id="f_14_2" begin="26640.0" end="26640.0" departLane="free" departPos="free" departSpeed="speedLimit" route="r_0" vehsPerHour="1115"/>
    <flow id="f_16_1" begin="28800.0" end="30240.0" departLane="free" departPos="free" departSpeed="speedLimit" route="r_0" vehsPerHour="1275"/>
    <flow id="f_16_2" begin="30240.0" end="30240.0" departLane="free" departPos="free" departSpeed="speedLimit" route="r_0" vehsPerHour="1380"/>
    <flow id="f_18_1" begin="32400.0" end="33840.0" departLane="free" departPos="free" departSpeed="speedLimit" route="r_0" vehsPerHour="1225"/>
    <flow id="f_18_2" begin="33840.0" end="33840.0" departLane="free" departPos="free" departSpeed="speedLimit" route="r_0" vehsPerHour="1100"/>
    <flow id="f_20_1" begin="36000.0" end="37440.0" departLane="free" departPos="free" departSpeed="speedLimit" route="r_0" vehsPerHour="1090"/>
    <flow id="f_20_2" begin="37440.0" end="37440.0" departLane="free" departPos="free" departSpeed="speedLimit" route="r_0" vehsPerHour="1075"/>
    <flow id="f_22_1" begin="39600.0" end="41040.0" departLane="free" departPos="free" departSpeed="speedLimit" route="r_0" vehsPerHour="1200"/>
    <flow id="f_22_2" begin="41040.0" end="41040.0" departLane="free" departPos="free" departSpeed="speedLimit" route="r_0" vehsPerHour="1325"/>
    <flow id="f_24_1" begin="43200.0" end="44640.0" departLane="free" departPos="free" departSpeed="speedLimit" route="r_0" vehsPerHour="1425"/>
    <flow id="f_24_2" begin="44640.0" end="44640.0" departLane="free" departPos="free" departSpeed="speedLimit" route="r_0" vehsPerHour="1525"/>
    <flow id="f_26_1" begin="46800.0" end="48240.0" departLane="free" departPos="free" departSpeed="speedLimit" route="r_0" vehsPerHour="1515"/>
    <flow id="f_26_2" begin="48240.0" end="48240.0" departLane="free" departPos="free" departSpeed="speedLimit" route="r_0" vehsPerHour="1500"/>
    <flow id="f_28_1" begin="50400.0" end="51840.0" departLane="free" departPos="free" departSpeed="speedLimit" route="r_0" vehsPerHour="1400"/>
    <flow id="f_28_2" begin="51840.0" end="51840.0" departLane="free" departPos="free" departSpeed="speedLimit" route="r_0" vehsPerHour="1300"/>
    <flow id="f_30_1" begin="54000.0" end="55440.0" departLane="free" departPos="free" departSpeed="speedLimit" route="r_0" vehsPerHour="1290"/>
    <flow id="f_30_2" begin="55440.0" end="55440.0" departLane="free" departPos="free" departSpeed="speedLimit" route="r_0" vehsPerHour="1280"/>
    <flow id="f_32_1" begin="57600.0" end="59040.0" departLane="free" departPos="free" departSpeed="speedLimit" route="r_0" vehsPerHour="1375"/>
    <flow id="f_32_2" begin="59040.0" end="59040.0" departLane="free" departPos="free" departSpeed="speedLimit" route="r_0" vehsPerHour="1400"/>
    <flow id="f_34_1" begin="61200.0" end="62640.0" departLane="free" departPos="free" departSpeed="speedLimit" route="r_0" vehsPerHour="1575"/>
    <flow id="f_34_2" begin="62640.0" end="62640.0" departLane="free" departPos="free" departSpeed="speedLimit" route="r_0" vehsPerHour="1725"/>
    <flow id="f_36_1" begin="64800.0" end="66240.0" departLane="free" departPos="free" departSpeed="speedLimit" route="r_0" vehsPerHour="1575"/>
    <flow id="f_36_2" begin="66240.0" end="66240.0" departLane="free" departPos="free" departSpeed="speedLimit" route="r_0" vehsPerHour="1400"/>
    <flow id="f_38_1" begin="68400.0" end="69840.0" departLane="free" departPos="free" departSpeed="speedLimit" route="r_0" vehsPerHour="1200"/>
    <flow id="f_38_2" begin="69840.0" end="69840.0" departLane="free" departPos="free" departSpeed="speedLimit" route="r_0" vehsPerHour="1125"/>
    <flow id="f_40_1" begin="72000.0" end="73440.0" departLane="free" departPos="free" departSpeed="speedLimit" route="r_0" vehsPerHour="850"/>
    <flow id="f_40_2" begin="73440.0" end="73440.0" departLane="free" departPos="free" departSpeed="speedLimit" route="r_0" vehsPerHour="700"/>
    <flow id="f_42_1" begin="75600.0" end="77040.0" departLane="free" departPos="free" departSpeed="speedLimit" route="r_0" vehsPerHour="575"/>
    <flow id="f_42_2" begin="77040.0" end="77040.0" departLane="free" departPos="free" departSpeed="speedLimit" route="r_0" vehsPerHour="450"/>
    <flow id="f_44_1" begin="79200.0" end="80640.0" departLane="free" departPos="free" departSpeed="speedLimit" route="r_0" vehsPerHour="350"/>
    <flow id="f_44_2" begin="80640.0" end="80640.0" departLane="free" departPos="free" departSpeed="speedLimit" route="r_0" vehsPerHour="225"/>
    <flow id="f_46_1" begin="82800.0" end="84240.0" departLane="free" departPos="free" departSpeed="speedLimit" route="r_0" vehsPerHour="200"/>
    <flow id="f_46_2" begin="84240.0" end="84240.0" departLane="free" departPos="free" departSpeed="speedLimit" route="r_0" vehsPerHour="100"/>
</routes>
