<routes>

    <vType id="passenger" accel="2.6" decel="4.5" sigma="0.266435659376992" length="4.5" maxSpeed="180" color="1,0,0" personNumber="3" emissionClass="HBEFA4/PC_petrol_Euro-4"/>
    <vType id="passenger/hatchback" accel="3.2" decel="4.9" sigma="0.45898506979487597" length="4.2" maxSpeed="240" color="0.8,0.8,0" personNumber="1" emissionClass="HBEFA4/PC_petrol_Euro-5"/>
    <vType id="passenger/van" accel="1.8" decel="3.2" sigma="0.46980746782433924" length="6.2" maxSpeed="130" color="1,1,1" personNumber="5" emissionClass="HBEFA4/PC_petrol_Euro-5"/>
    <vType id="bus" accel="1.2" decel="3.8" sigma="0.2831867307066959" length="12.0" maxSpeed="100" color="1,.5,.5" personNumber="19" emissionClass="HBEFA4/UBus_Artic_gt18t_Euro-VI_A-C"/>
    <vType id="motorcycle" accel="3.8" decel="6.2" sigma="0.3224045855412332" length="2.2" maxSpeed="180" color=".2,.2,.8" personNumber="1" emissionClass="HBEFA4/PC_petrol_Euro-6ab"/>
    <vType id="truck" accel="1.1" decel="3.1" sigma="0.16171352113772502" length="6" maxSpeed="100" color=".4,.1,.4" personNumber="2" emissionClass="HBEFA4/RT_le7.5t_Euro-VI_A-C"/>
    <vType id="truck/trailer" accel="1.1" decel="3.1" sigma="0.2795723078015817" length="10.5" maxSpeed="100" color=".4,.4,.4" personNumber="1" emissionClass="HBEFA4/RT_le7.5t_Euro-VI_A-C"/>
    <vType id="disobedient_passenger" accel="2.6" decel="4.5" length="4.5" maxSpeed="180" color="1,0,0" personNumber="3" sigma="1.0" speedFactor="1.2" speedDev="0.2" lcStrategic="0.5" lcCooperative="0.1" lcSpeedGain="1.5" emissionClass="HBEFA4/PC_petrol_Euro-6ab"/>
    <vType id="disobedient_passenger/hatchback" accel="3.2" decel="4.9" length="4.2" maxSpeed="240" color="0.8,0.8,0" personNumber="2" sigma="1.0" speedFactor="1.2" speedDev="0.2" lcStrategic="0.5" lcCooperative="0.1" lcSpeedGain="1.5" emissionClass="HBEFA4/PC_petrol_Euro-6ab"/>
    <vType id="disobedient_passenger/van" accel="1.8" decel="3.2" length="6.2" maxSpeed="130" color="1,1,1" personNumber="4" sigma="1.0" speedFactor="1.2" speedDev="0.2" lcStrategic="0.5" lcCooperative="0.1" lcSpeedGain="1.5" emissionClass="HBEFA4/PC_petrol_Euro-6ab"/>
    <vType id="disobedient_bus" accel="1.2" decel="3.8" length="12.0" maxSpeed="100" color="1,.5,.5" personNumber="28" sigma="1.0" speedFactor="1.2" speedDev="0.2" lcStrategic="0.5" lcCooperative="0.1" lcSpeedGain="1.5" emissionClass="HBEFA4/UBus_Artic_gt18t_Euro-VI_A-C"/>
    <vType id="disobedient_motorcycle" accel="3.8" decel="6.2" length="2.2" maxSpeed="180" color=".2,.2,.8" personNumber="1" sigma="1.0" speedFactor="1.2" speedDev="0.2" lcStrategic="0.5" lcCooperative="0.1" lcSpeedGain="1.5" emissionClass="HBEFA4/PC_petrol_Euro-6ab"/>
    <vType id="disobedient_truck" accel="1.1" decel="3.1" length="6" maxSpeed="100" color=".4,.1,.4" personNumber="1" sigma="1.0" speedFactor="1.2" speedDev="0.2" lcStrategic="0.5" lcCooperative="0.1" lcSpeedGain="1.5" emissionClass="HBEFA4/RT_le7.5t_Euro-VI_A-C"/>
    <vType id="disobedient_truck/trailer" accel="1.1" decel="3.1" length="10.5" maxSpeed="100" color=".4,.4,.4" personNumber="1" sigma="1.0" speedFactor="1.2" speedDev="0.2" lcStrategic="0.5" lcCooperative="0.1" lcSpeedGain="1.5" emissionClass="HBEFA4/RT_le7.5t_Euro-VI_A-C"/>

    <route id="r_0" edges="seg_10_before seg_9_before seg_8_before seg_7_before seg_6_before seg_5_before seg_4_before seg_3_before seg_2_before seg_1_before seg_0_before seg_0_after seg_1_after"/>

    <flow id="passenger_0_0_passenger" type="passenger" begin="0" end="1800" departLane="free" departPos="free" departSpeed="speedLimit" route="r_0" vehsPerHour="80.609118943953" guiShape="passenger"/>
    <flow id="passenger/hatchback_0_0_passenger/hatchback" type="passenger/hatchback" begin="0" end="1800" departLane="free" departPos="free" departSpeed="speedLimit" route="r_0" vehsPerHour="8.40370347440467" guiShape="passenger/hatchback"/>
    <flow id="truck_0_0_truck" type="truck" begin="0" end="1800" departLane="free" departPos="free" departSpeed="speedLimit" route="r_0" vehsPerHour="0.25285033902256776" guiShape="truck"/>
    <flow id="truck/trailer_0_0_truck/trailer" type="truck/trailer" begin="0" end="1800" departLane="free" departPos="free" departSpeed="speedLimit" route="r_0" vehsPerHour="12.389666612105808" guiShape="truck/trailer"/>
    <flow id="disobedient_passenger_0_0_disobedient_passenger" type="disobedient_passenger" begin="0" end="1800" departLane="free" departPos="free" departSpeed="speedLimit" route="r_0" vehsPerHour="4.030455947197651" guiShape="passenger"/>
    <flow id="disobedient_passenger/hatchback_0_0_disobedient_passenger/hatchback" type="disobedient_passenger/hatchback" begin="0" end="1800" departLane="free" departPos="free" departSpeed="speedLimit" route="r_0" vehsPerHour="0.7563333126964202" guiShape="passenger/hatchback"/>
    <flow id="disobedient_truck_0_0_disobedient_truck" type="disobedient_truck" begin="0" end="1800" departLane="free" departPos="free" departSpeed="speedLimit" route="r_0" vehsPerHour="0.005057006780451355" guiShape="truck"/>
    <flow id="disobedient_truck/trailer_0_0_disobedient_truck/trailer" type="disobedient_truck/trailer" begin="0" end="1800" departLane="free" departPos="free" departSpeed="speedLimit" route="r_0" vehsPerHour="0.061948333060529034" guiShape="truck/trailer"/>
    <flow id="passenger_0_1_passenger" type="passenger" begin="1800" end="3600" departLane="free" departPos="free" departSpeed="speedLimit" route="r_0" vehsPerHour="53.73941262930201" guiShape="passenger"/>
    <flow id="passenger/hatchback_0_1_passenger/hatchback" type="passenger/hatchback" begin="1800" end="3600" departLane="free" departPos="free" departSpeed="speedLimit" route="r_0" vehsPerHour="5.602468982936448" guiShape="passenger/hatchback"/>
    <flow id="truck_0_1_truck" type="truck" begin="1800" end="3600" departLane="free" departPos="free" departSpeed="speedLimit" route="r_0" vehsPerHour="0.16856689268171185" guiShape="truck"/>
    <flow id="truck/trailer_0_1_truck/trailer" type="truck/trailer" begin="1800" end="3600" departLane="free" departPos="free" departSpeed="speedLimit" route="r_0" vehsPerHour="8.259777741403871" guiShape="truck/trailer"/>
    <flow id="disobedient_passenger_0_1_disobedient_passenger" type="disobedient_passenger" begin="1800" end="3600" departLane="free" departPos="free" departSpeed="speedLimit" route="r_0" vehsPerHour="2.6869706314651007" guiShape="passenger"/>
    <flow id="disobedient_passenger/hatchback_0_1_disobedient_passenger/hatchback" type="disobedient_passenger/hatchback" begin="1800" end="3600" departLane="free" departPos="free" departSpeed="speedLimit" route="r_0" vehsPerHour="0.5042222084642802" guiShape="passenger/hatchback"/>
    <flow id="disobedient_truck_0_1_disobedient_truck" type="disobedient_truck" begin="1800" end="3600" departLane="free" departPos="free" departSpeed="speedLimit" route="r_0" vehsPerHour="0.003371337853634237" guiShape="truck"/>
    <flow id="disobedient_truck/trailer_0_1_disobedient_truck/trailer" type="disobedient_truck/trailer" begin="1800" end="3600" departLane="free" departPos="free" departSpeed="speedLimit" route="r_0" vehsPerHour="0.04129888870701936" guiShape="truck/trailer"/>
    <flow id="passenger_1_0_passenger" type="passenger" begin="3600" end="5400" departLane="free" departPos="free" departSpeed="speedLimit" route="r_0" vehsPerHour="64.07633940626062" guiShape="passenger"/>
    <flow id="passenger/hatchback_1_0_passenger/hatchback" type="passenger/hatchback" begin="3600" end="5400" departLane="free" departPos="free" departSpeed="speedLimit" route="r_0" vehsPerHour="6.680119608675116" guiShape="passenger/hatchback"/>
    <flow id="truck_1_0_truck" type="truck" begin="3600" end="5400" departLane="free" departPos="free" departSpeed="speedLimit" route="r_0" vehsPerHour="0.20099120737770457" guiShape="truck"/>
    <flow id="truck/trailer_1_0_truck/trailer" type="truck/trailer" begin="3600" end="5400" departLane="free" departPos="free" departSpeed="speedLimit" route="r_0" vehsPerHour="9.848569161507514" guiShape="truck/trailer"/>
    <flow id="disobedient_passenger_1_0_disobedient_passenger" type="disobedient_passenger" begin="3600" end="5400" departLane="free" departPos="free" departSpeed="speedLimit" route="r_0" vehsPerHour="3.203816970313031" guiShape="passenger"/>
    <flow id="disobedient_passenger/hatchback_1_0_disobedient_passenger/hatchback" type="disobedient_passenger/hatchback" begin="3600" end="5400" departLane="free" departPos="free" departSpeed="speedLimit" route="r_0" vehsPerHour="0.6012107647807603" guiShape="passenger/hatchback"/>
    <flow id="disobedient_truck_1_0_disobedient_truck" type="disobedient_truck" begin="3600" end="5400" departLane="free" departPos="free" departSpeed="speedLimit" route="r_0" vehsPerHour="0.004019824147554091" guiShape="truck"/>
    <flow id="disobedient_truck/trailer_1_0_disobedient_truck/trailer" type="disobedient_truck/trailer" begin="3600" end="5400" departLane="free" departPos="free" departSpeed="speedLimit" route="r_0" vehsPerHour="0.04924284580753757" guiShape="truck/trailer"/>
    <flow id="passenger_1_1_passenger" type="passenger" begin="5400" end="7200" departLane="free" departPos="free" departSpeed="speedLimit" route="r_0" vehsPerHour="32.03816970313031" guiShape="passenger"/>
    <flow id="passenger/hatchback_1_1_passenger/hatchback" type="passenger/hatchback" begin="5400" end="7200" departLane="free" departPos="free" departSpeed="speedLimit" route="r_0" vehsPerHour="3.340059804337558" guiShape="passenger/hatchback"/>
    <flow id="truck_1_1_truck" type="truck" begin="5400" end="7200" departLane="free" departPos="free" departSpeed="speedLimit" route="r_0" vehsPerHour="0.10049560368885228" guiShape="truck"/>
    <flow id="truck/trailer_1_1_truck/trailer" type="truck/trailer" begin="5400" end="7200" departLane="free" departPos="free" departSpeed="speedLimit" route="r_0" vehsPerHour="4.924284580753757" guiShape="truck/trailer"/>
    <flow id="disobedient_passenger_1_1_disobedient_passenger" type="disobedient_passenger" begin="5400" end="7200" departLane="free" departPos="free" departSpeed="speedLimit" route="r_0" vehsPerHour="1.6019084851565155" guiShape="passenger"/>
    <flow id="disobedient_passenger/hatchback_1_1_disobedient_passenger/hatchback" type="disobedient_passenger/hatchback" begin="5400" end="7200" departLane="free" departPos="free" departSpeed="speedLimit" route="r_0" vehsPerHour="0.30060538239038015" guiShape="passenger/hatchback"/>
    <flow id="disobedient_truck_1_1_disobedient_truck" type="disobedient_truck" begin="5400" end="7200" departLane="free" departPos="free" departSpeed="speedLimit" route="r_0" vehsPerHour="0.0020099120737770457" guiShape="truck"/>
    <flow id="disobedient_truck/trailer_1_1_disobedient_truck/trailer" type="disobedient_truck/trailer" begin="5400" end="7200" departLane="free" departPos="free" departSpeed="speedLimit" route="r_0" vehsPerHour="0.024621422903768786" guiShape="truck/trailer"/>
    <flow id="passenger_2_0_passenger" type="passenger" begin="7200" end="9000" departLane="free" departPos="free" departSpeed="speedLimit" route="r_0" vehsPerHour="32.574600701794665" guiShape="passenger"/>
    <flow id="passenger/hatchback_2_0_passenger/hatchback" type="passenger/hatchback" begin="7200" end="9000" departLane="free" departPos="free" departSpeed="speedLimit" route="r_0" vehsPerHour="3.395984085688262" guiShape="passenger/hatchback"/>
    <flow id="truck_2_0_truck" type="truck" begin="7200" end="9000" departLane="free" departPos="free" departSpeed="speedLimit" route="r_0" vehsPerHour="0.10217825152884176" guiShape="truck"/>
    <flow id="truck/trailer_2_0_truck/trailer" type="truck/trailer" begin="7200" end="9000" departLane="free" departPos="free" departSpeed="speedLimit" route="r_0" vehsPerHour="5.006734324913241" guiShape="truck/trailer"/>
    <flow id="disobedient_passenger_2_0_disobedient_passenger" type="disobedient_passenger" begin="7200" end="9000" departLane="free" departPos="free" departSpeed="speedLimit" route="r_0" vehsPerHour="1.6287300350897334" guiShape="passenger"/>
    <flow id="disobedient_passenger/hatchback_2_0_disobedient_passenger/hatchback" type="disobedient_passenger/hatchback" begin="7200" end="9000" departLane="free" departPos="free" departSpeed="speedLimit" route="r_0" vehsPerHour="0.30563856771194353" guiShape="passenger/hatchback"/>
    <flow id="disobedient_truck_2_0_disobedient_truck" type="disobedient_truck" begin="7200" end="9000" departLane="free" departPos="free" departSpeed="speedLimit" route="r_0" vehsPerHour="0.002043565030576835" guiShape="truck"/>
    <flow id="disobedient_truck/trailer_2_0_disobedient_truck/trailer" type="disobedient_truck/trailer" begin="7200" end="9000" departLane="free" departPos="free" departSpeed="speedLimit" route="r_0" vehsPerHour="0.025033671624566205" guiShape="truck/trailer"/>
    <flow id="passenger_2_1_passenger" type="passenger" begin="9000" end="10800" departLane="free" departPos="free" departSpeed="speedLimit" route="r_0" vehsPerHour="13.029840280717863" guiShape="passenger"/>
    <flow id="passenger/hatchback_2_1_passenger/hatchback" type="passenger/hatchback" begin="9000" end="10800" departLane="free" departPos="free" departSpeed="speedLimit" route="r_0" vehsPerHour="1.3583936342753047" guiShape="passenger/hatchback"/>
    <flow id="truck_2_1_truck" type="truck" begin="9000" end="10800" departLane="free" departPos="free" departSpeed="speedLimit" route="r_0" vehsPerHour="0.040871300611536696" guiShape="truck"/>
    <flow id="truck/trailer_2_1_truck/trailer" type="truck/trailer" begin="9000" end="10800" departLane="free" departPos="free" departSpeed="speedLimit" route="r_0" vehsPerHour="2.002693729965296" guiShape="truck/trailer"/>
    <flow id="disobedient_passenger_2_1_disobedient_passenger" type="disobedient_passenger" begin="9000" end="10800" departLane="free" departPos="free" departSpeed="speedLimit" route="r_0" vehsPerHour="0.6514920140358932" guiShape="passenger"/>
    <flow id="disobedient_passenger/hatchback_2_1_disobedient_passenger/hatchback" type="disobedient_passenger/hatchback" begin="9000" end="10800" departLane="free" departPos="free" departSpeed="speedLimit" route="r_0" vehsPerHour="0.1222554270847774" guiShape="passenger/hatchback"/>
    <flow id="disobedient_truck_2_1_disobedient_truck" type="disobedient_truck" begin="9000" end="10800" departLane="free" departPos="free" departSpeed="speedLimit" route="r_0" vehsPerHour="0.0008174260122307339" guiShape="truck"/>
    <flow id="disobedient_truck/trailer_2_1_disobedient_truck/trailer" type="disobedient_truck/trailer" begin="9000" end="10800" departLane="free" departPos="free" departSpeed="speedLimit" route="r_0" vehsPerHour="0.01001346864982648" guiShape="truck/trailer"/>
    <flow id="passenger_3_0_passenger" type="passenger" begin="10800" end="12600" departLane="free" departPos="free" departSpeed="speedLimit" route="r_0" vehsPerHour="13.812710076237272" guiShape="passenger"/>
    <flow id="passenger/hatchback_3_0_passenger/hatchback" type="passenger/hatchback" begin="10800" end="12600" departLane="free" departPos="free" departSpeed="speedLimit" route="r_0" vehsPerHour="1.4400097802747078" guiShape="passenger/hatchback"/>
    <flow id="truck_3_0_truck" type="truck" begin="10800" end="12600" departLane="free" departPos="free" departSpeed="speedLimit" route="r_0" vehsPerHour="0.04332696438507631" guiShape="truck"/>
    <flow id="truck/trailer_3_0_truck/trailer" type="truck/trailer" begin="10800" end="12600" departLane="free" departPos="free" departSpeed="speedLimit" route="r_0" vehsPerHour="2.123021254868737" guiShape="truck/trailer"/>
    <flow id="disobedient_passenger_3_0_disobedient_passenger" type="disobedient_passenger" begin="10800" end="12600" departLane="free" departPos="free" departSpeed="speedLimit" route="r_0" vehsPerHour="0.6906355038118637" guiShape="passenger"/>
    <flow id="disobedient_passenger/hatchback_3_0_disobedient_passenger/hatchback" type="disobedient_passenger/hatchback" begin="10800" end="12600" departLane="free" departPos="free" departSpeed="speedLimit" route="r_0" vehsPerHour="0.12960088022472369" guiShape="passenger/hatchback"/>
    <flow id="disobedient_truck_3_0_disobedient_truck" type="disobedient_truck" begin="10800" end="12600" departLane="free" departPos="free" departSpeed="speedLimit" route="r_0" vehsPerHour="0.0008665392877015261" guiShape="truck"/>
    <flow id="disobedient_truck/trailer_3_0_disobedient_truck/trailer" type="disobedient_truck/trailer" begin="10800" end="12600" departLane="free" departPos="free" departSpeed="speedLimit" route="r_0" vehsPerHour="0.010615106274343684" guiShape="truck/trailer"/>
    <flow id="passenger_3_1_passenger" type="passenger" begin="12600" end="14400" departLane="free" departPos="free" departSpeed="speedLimit" route="r_0" vehsPerHour="20.719065114355907" guiShape="passenger"/>
    <flow id="passenger/hatchback_3_1_passenger/hatchback" type="passenger/hatchback" begin="12600" end="14400" departLane="free" departPos="free" departSpeed="speedLimit" route="r_0" vehsPerHour="2.1600146704120617" guiShape="passenger/hatchback"/>
    <flow id="truck_3_1_truck" type="truck" begin="12600" end="14400" departLane="free" departPos="free" departSpeed="speedLimit" route="r_0" vehsPerHour="0.06499044657761446" guiShape="truck"/>
    <flow id="truck/trailer_3_1_truck/trailer" type="truck/trailer" begin="12600" end="14400" departLane="free" departPos="free" departSpeed="speedLimit" route="r_0" vehsPerHour="3.184531882303105" guiShape="truck/trailer"/>
    <flow id="disobedient_passenger_3_1_disobedient_passenger" type="disobedient_passenger" begin="12600" end="14400" departLane="free" departPos="free" departSpeed="speedLimit" route="r_0" vehsPerHour="1.0359532557177955" guiShape="passenger"/>
    <flow id="disobedient_passenger/hatchback_3_1_disobedient_passenger/hatchback" type="disobedient_passenger/hatchback" begin="12600" end="14400" departLane="free" departPos="free" departSpeed="speedLimit" route="r_0" vehsPerHour="0.19440132033708554" guiShape="passenger/hatchback"/>
    <flow id="disobedient_truck_3_1_disobedient_truck" type="disobedient_truck" begin="12600" end="14400" departLane="free" departPos="free" departSpeed="speedLimit" route="r_0" vehsPerHour="0.0012998089315522893" guiShape="truck"/>
    <flow id="disobedient_truck/trailer_3_1_disobedient_truck/trailer" type="disobedient_truck/trailer" begin="12600" end="14400" departLane="free" departPos="free" departSpeed="speedLimit" route="r_0" vehsPerHour="0.015922659411515525" guiShape="truck/trailer"/>
    <flow id="passenger_4_0_passenger" type="passenger" begin="14400" end="16200" departLane="free" departPos="free" departSpeed="speedLimit" route="r_0" vehsPerHour="45.81341017350328" guiShape="passenger"/>
    <flow id="passenger/hatchback_4_0_passenger/hatchback" type="passenger/hatchback" begin="14400" end="16200" departLane="free" departPos="free" departSpeed="speedLimit" route="r_0" vehsPerHour="4.776163283921827" guiShape="passenger/hatchback"/>
    <flow id="truck_4_0_truck" type="truck" begin="14400" end="16200" departLane="free" departPos="free" departSpeed="speedLimit" route="r_0" vehsPerHour="0.14370503543407406" guiShape="truck"/>
    <flow id="truck/trailer_4_0_truck/trailer" type="truck/trailer" begin="14400" end="16200" departLane="free" departPos="free" departSpeed="speedLimit" route="r_0" vehsPerHour="7.041546736269622" guiShape="truck/trailer"/>
    <flow id="disobedient_passenger_4_0_disobedient_passenger" type="disobedient_passenger" begin="14400" end="16200" departLane="free" departPos="free" departSpeed="speedLimit" route="r_0" vehsPerHour="2.290670508675164" guiShape="passenger"/>
    <flow id="disobedient_passenger/hatchback_4_0_disobedient_passenger/hatchback" type="disobedient_passenger/hatchback" begin="14400" end="16200" departLane="free" departPos="free" departSpeed="speedLimit" route="r_0" vehsPerHour="0.4298546955529644" guiShape="passenger/hatchback"/>
    <flow id="disobedient_truck_4_0_disobedient_truck" type="disobedient_truck" begin="14400" end="16200" departLane="free" departPos="free" departSpeed="speedLimit" route="r_0" vehsPerHour="0.002874100708681481" guiShape="truck"/>
    <flow id="disobedient_truck/trailer_4_0_disobedient_truck/trailer" type="disobedient_truck/trailer" begin="14400" end="16200" departLane="free" departPos="free" departSpeed="speedLimit" route="r_0" vehsPerHour="0.03520773368134811" guiShape="truck/trailer"/>
    <flow id="passenger_4_1_passenger" type="passenger" begin="16200" end="18000" departLane="free" departPos="free" departSpeed="speedLimit" route="r_0" vehsPerHour="65.4477288192904" guiShape="passenger"/>
    <flow id="passenger/hatchback_4_1_passenger/hatchback" type="passenger/hatchback" begin="16200" end="18000" departLane="free" departPos="free" departSpeed="speedLimit" route="r_0" vehsPerHour="6.823090405602611" guiShape="passenger/hatchback"/>
    <flow id="truck_4_1_truck" type="truck" begin="16200" end="18000" departLane="free" departPos="free" departSpeed="speedLimit" route="r_0" vehsPerHour="0.20529290776296294" guiShape="truck"/>
    <flow id="truck/trailer_4_1_truck/trailer" type="truck/trailer" begin="16200" end="18000" departLane="free" departPos="free" departSpeed="speedLimit" route="r_0" vehsPerHour="10.059352480385174" guiShape="truck/trailer"/>
    <flow id="disobedient_passenger_4_1_disobedient_passenger" type="disobedient_passenger" begin="16200" end="18000" departLane="free" departPos="free" departSpeed="speedLimit" route="r_0" vehsPerHour="3.27238644096452" guiShape="passenger"/>
    <flow id="disobedient_passenger/hatchback_4_1_disobedient_passenger/hatchback" type="disobedient_passenger/hatchback" begin="16200" end="18000" departLane="free" departPos="free" departSpeed="speedLimit" route="r_0" vehsPerHour="0.6140781365042348" guiShape="passenger/hatchback"/>
    <flow id="disobedient_truck_4_1_disobedient_truck" type="disobedient_truck" begin="16200" end="18000" departLane="free" departPos="free" departSpeed="speedLimit" route="r_0" vehsPerHour="0.004105858155259259" guiShape="truck"/>
    <flow id="disobedient_truck/trailer_4_1_disobedient_truck/trailer" type="disobedient_truck/trailer" begin="16200" end="18000" departLane="free" departPos="free" departSpeed="speedLimit" route="r_0" vehsPerHour="0.05029676240192587" guiShape="truck/trailer"/>
    <flow id="passenger_5_0_passenger" type="passenger" begin="18000" end="19800" departLane="free" departPos="free" departSpeed="speedLimit" route="r_0" vehsPerHour="92.79946724301848" guiShape="passenger"/>
    <flow id="passenger/hatchback_5_0_passenger/hatchback" type="passenger/hatchback" begin="18000" end="19800" departLane="free" departPos="free" departSpeed="speedLimit" route="r_0" vehsPerHour="9.674577957306392" guiShape="passenger/hatchback"/>
    <flow id="truck_5_0_truck" type="truck" begin="18000" end="19800" departLane="free" departPos="free" departSpeed="speedLimit" route="r_0" vehsPerHour="0.2910883664393543" guiShape="truck"/>
    <flow id="truck/trailer_5_0_truck/trailer" type="truck/trailer" begin="18000" end="19800" departLane="free" departPos="free" departSpeed="speedLimit" route="r_0" vehsPerHour="14.263329955528349" guiShape="truck/trailer"/>
    <flow id="disobedient_passenger_5_0_disobedient_passenger" type="disobedient_passenger" begin="18000" end="19800" departLane="free" departPos="free" departSpeed="speedLimit" route="r_0" vehsPerHour="4.639973362150925" guiShape="passenger"/>
    <flow id="disobedient_passenger/hatchback_5_0_disobedient_passenger/hatchback" type="disobedient_passenger/hatchback" begin="18000" end="19800" departLane="free" departPos="free" departSpeed="speedLimit" route="r_0" vehsPerHour="0.8707120161575751" guiShape="passenger/hatchback"/>
    <flow id="disobedient_truck_5_0_disobedient_truck" type="disobedient_truck" begin="18000" end="19800" departLane="free" departPos="free" departSpeed="speedLimit" route="r_0" vehsPerHour="0.005821767328787087" guiShape="truck"/>
    <flow id="disobedient_truck/trailer_5_0_disobedient_truck/trailer" type="disobedient_truck/trailer" begin="18000" end="19800" departLane="free" departPos="free" departSpeed="speedLimit" route="r_0" vehsPerHour="0.07131664977764174" guiShape="truck/trailer"/>
    <flow id="passenger_5_1_passenger" type="passenger" begin="19800" end="21600" departLane="free" departPos="free" departSpeed="speedLimit" route="r_0" vehsPerHour="154.66577873836414" guiShape="passenger"/>
    <flow id="passenger/hatchback_5_1_passenger/hatchback" type="passenger/hatchback" begin="19800" end="21600" departLane="free" departPos="free" departSpeed="speedLimit" route="r_0" vehsPerHour="16.124296595510653" guiShape="passenger/hatchback"/>
    <flow id="truck_5_1_truck" type="truck" begin="19800" end="21600" departLane="free" departPos="free" departSpeed="speedLimit" route="r_0" vehsPerHour="0.48514727739892394" guiShape="truck"/>
    <flow id="truck/trailer_5_1_truck/trailer" type="truck/trailer" begin="19800" end="21600" departLane="free" departPos="free" departSpeed="speedLimit" route="r_0" vehsPerHour="23.77221659254725" guiShape="truck/trailer"/>
    <flow id="disobedient_passenger_5_1_disobedient_passenger" type="disobedient_passenger" begin="19800" end="21600" departLane="free" departPos="free" departSpeed="speedLimit" route="r_0" vehsPerHour="7.733288936918208" guiShape="passenger"/>
    <flow id="disobedient_passenger/hatchback_5_1_disobedient_passenger/hatchback" type="disobedient_passenger/hatchback" begin="19800" end="21600" departLane="free" departPos="free" departSpeed="speedLimit" route="r_0" vehsPerHour="1.4511866935959585" guiShape="passenger/hatchback"/>
    <flow id="disobedient_truck_5_1_disobedient_truck" type="disobedient_truck" begin="19800" end="21600" departLane="free" departPos="free" departSpeed="speedLimit" route="r_0" vehsPerHour="0.009702945547978478" guiShape="truck"/>
    <flow id="disobedient_truck/trailer_5_1_disobedient_truck/trailer" type="disobedient_truck/trailer" begin="19800" end="21600" departLane="free" departPos="free" departSpeed="speedLimit" route="r_0" vehsPerHour="0.11886108296273623" guiShape="truck/trailer"/>
    <flow id="passenger_6_0_passenger" type="passenger" begin="21600" end="23400" departLane="free" departPos="free" departSpeed="speedLimit" route="r_0" vehsPerHour="464.92183330895307" guiShape="passenger"/>
    <flow id="passenger/hatchback_6_0_passenger/hatchback" type="passenger/hatchback" begin="21600" end="23400" departLane="free" departPos="free" departSpeed="speedLimit" route="r_0" vehsPerHour="48.46927093473872" guiShape="passenger/hatchback"/>
    <flow id="truck_6_0_truck" type="truck" begin="21600" end="23400" departLane="free" departPos="free" departSpeed="speedLimit" route="r_0" vehsPerHour="1.4583417448452474" guiShape="truck"/>
    <flow id="truck/trailer_6_0_truck/trailer" type="truck/trailer" begin="21600" end="23400" departLane="free" departPos="free" departSpeed="speedLimit" route="r_0" vehsPerHour="71.45874549741704" guiShape="truck/trailer"/>
    <flow id="disobedient_passenger_6_0_disobedient_passenger" type="disobedient_passenger" begin="21600" end="23400" departLane="free" departPos="free" departSpeed="speedLimit" route="r_0" vehsPerHour="23.246091665447654" guiShape="passenger"/>
    <flow id="disobedient_passenger/hatchback_6_0_disobedient_passenger/hatchback" type="disobedient_passenger/hatchback" begin="21600" end="23400" departLane="free" departPos="free" departSpeed="speedLimit" route="r_0" vehsPerHour="4.362234384126484" guiShape="passenger/hatchback"/>
    <flow id="disobedient_truck_6_0_disobedient_truck" type="disobedient_truck" begin="21600" end="23400" departLane="free" departPos="free" departSpeed="speedLimit" route="r_0" vehsPerHour="0.029166834896904945" guiShape="truck"/>
    <flow id="disobedient_truck/trailer_6_0_disobedient_truck/trailer" type="disobedient_truck/trailer" begin="21600" end="23400" departLane="free" departPos="free" departSpeed="speedLimit" route="r_0" vehsPerHour="0.3572937274870852" guiShape="truck/trailer"/>
    <flow id="passenger_6_1_passenger" type="passenger" begin="23400" end="25200" departLane="free" departPos="free" departSpeed="speedLimit" route="r_0" vehsPerHour="743.8749332943249" guiShape="passenger"/>
    <flow id="passenger/hatchback_6_1_passenger/hatchback" type="passenger/hatchback" begin="23400" end="25200" departLane="free" departPos="free" departSpeed="speedLimit" route="r_0" vehsPerHour="77.55083349558195" guiShape="passenger/hatchback"/>
    <flow id="truck_6_1_truck" type="truck" begin="23400" end="25200" departLane="free" departPos="free" departSpeed="speedLimit" route="r_0" vehsPerHour="2.333346791752396" guiShape="truck"/>
    <flow id="truck/trailer_6_1_truck/trailer" type="truck/trailer" begin="23400" end="25200" departLane="free" departPos="free" departSpeed="speedLimit" route="r_0" vehsPerHour="114.33399279586727" guiShape="truck/trailer"/>
    <flow id="disobedient_passenger_6_1_disobedient_passenger" type="disobedient_passenger" begin="23400" end="25200" departLane="free" departPos="free" departSpeed="speedLimit" route="r_0" vehsPerHour="37.193746664716244" guiShape="passenger"/>
    <flow id="disobedient_passenger/hatchback_6_1_disobedient_passenger/hatchback" type="disobedient_passenger/hatchback" begin="23400" end="25200" departLane="free" departPos="free" departSpeed="speedLimit" route="r_0" vehsPerHour="6.979575014602374" guiShape="passenger/hatchback"/>
    <flow id="disobedient_truck_6_1_disobedient_truck" type="disobedient_truck" begin="23400" end="25200" departLane="free" departPos="free" departSpeed="speedLimit" route="r_0" vehsPerHour="0.04666693583504791" guiShape="truck"/>
    <flow id="disobedient_truck/trailer_6_1_disobedient_truck/trailer" type="disobedient_truck/trailer" begin="23400" end="25200" departLane="free" departPos="free" departSpeed="speedLimit" route="r_0" vehsPerHour="0.5716699639793363" guiShape="truck/trailer"/>