<routes>

    <vType id="passenger" accel="2.6" decel="4.5" sigma="0.2065417185664356" length="4.5" maxSpeed="180" color="1,0,0" personNumber="1" emissionClass="HBEFA4/PC_petrol_Euro-4"/>
    <vType id="passenger/hatchback" accel="3.2" decel="4.9" sigma="0.4806127928805394" length="4.2" maxSpeed="240" color="0.8,0.8,0" personNumber="2" emissionClass="HBEFA4/PC_petrol_Euro-5"/>
    <vType id="passenger/van" accel="1.8" decel="3.2" sigma="0.1259941690900322" length="6.2" maxSpeed="130" color="1,1,1" personNumber="5" emissionClass="HBEFA4/PC_petrol_Euro-5"/>
    <vType id="bus" accel="1.2" decel="3.8" sigma="0.19789537641392047" length="12.0" maxSpeed="100" color="1,.5,.5" personNumber="37" emissionClass="HBEFA4/UBus_Artic_gt18t_Euro-VI_A-C"/>
    <vType id="motorcycle" accel="3.8" decel="6.2" sigma="0.32288465529920773" length="2.2" maxSpeed="180" color=".2,.2,.8" personNumber="1" emissionClass="HBEFA4/PC_petrol_Euro-6ab"/>
    <vType id="truck" accel="1.1" decel="3.1" sigma="0.22871008750208488" length="6" maxSpeed="100" color=".4,.1,.4" personNumber="1" emissionClass="HBEFA4/RT_le7.5t_Euro-VI_A-C"/>
    <vType id="truck/trailer" accel="1.1" decel="3.1" sigma="0.17049464997714933" length="10.5" maxSpeed="100" color=".4,.4,.4" personNumber="1" emissionClass="HBEFA4/RT_le7.5t_Euro-VI_A-C"/>
    <vType id="disobedient_passenger" accel="2.6" decel="4.5" length="4.5" maxSpeed="180" color="1,0,0" personNumber="2" sigma="1.0" speedFactor="1.2" speedDev="0.2" lcStrategic="0.5" lcCooperative="0.1" lcSpeedGain="1.5" emissionClass="HBEFA4/PC_petrol_Euro-6ab"/>
    <vType id="disobedient_passenger/hatchback" accel="3.2" decel="4.9" length="4.2" maxSpeed="240" color="0.8,0.8,0" personNumber="1" sigma="1.0" speedFactor="1.2" speedDev="0.2" lcStrategic="0.5" lcCooperative="0.1" lcSpeedGain="1.5" emissionClass="HBEFA4/PC_petrol_Euro-6ab"/>
    <vType id="disobedient_passenger/van" accel="1.8" decel="3.2" length="6.2" maxSpeed="130" color="1,1,1" personNumber="2" sigma="1.0" speedFactor="1.2" speedDev="0.2" lcStrategic="0.5" lcCooperative="0.1" lcSpeedGain="1.5" emissionClass="HBEFA4/PC_petrol_Euro-6ab"/>
    <vType id="disobedient_bus" accel="1.2" decel="3.8" length="12.0" maxSpeed="100" color="1,.5,.5" personNumber="2" sigma="1.0" speedFactor="1.2" speedDev="0.2" lcStrategic="0.5" lcCooperative="0.1" lcSpeedGain="1.5" emissionClass="HBEFA4/UBus_Artic_gt18t_Euro-VI_A-C"/>
    <vType id="disobedient_motorcycle" accel="3.8" decel="6.2" length="2.2" maxSpeed="180" color=".2,.2,.8" personNumber="1" sigma="1.0" speedFactor="1.2" speedDev="0.2" lcStrategic="0.5" lcCooperative="0.1" lcSpeedGain="1.5" emissionClass="HBEFA4/PC_petrol_Euro-6ab"/>
    <vType id="disobedient_truck" accel="1.1" decel="3.1" length="6" maxSpeed="100" color=".4,.1,.4" personNumber="1" sigma="1.0" speedFactor="1.2" speedDev="0.2" lcStrategic="0.5" lcCooperative="0.1" lcSpeedGain="1.5" emissionClass="HBEFA4/RT_le7.5t_Euro-VI_A-C"/>
    <vType id="disobedient_truck/trailer" accel="1.1" decel="3.1" length="10.5" maxSpeed="100" color=".4,.4,.4" personNumber="1" sigma="1.0" speedFactor="1.2" speedDev="0.2" lcStrategic="0.5" lcCooperative="0.1" lcSpeedGain="1.5" emissionClass="HBEFA4/RT_le7.5t_Euro-VI_A-C"/>

    <route id="r_0" edges="seg_10_before seg_9_before seg_8_before seg_7_before seg_6_before seg_5_before seg_4_before seg_3_before seg_2_before seg_1_before seg_0_before seg_0_after seg_1_after"/>

<flow id="passenger_0_0_passenger" type="passenger" begin="0" end="1800" departLane="free" departPos="free" departSpeed="speedLimit" route="r_0" vehsPerHour="45.02062311249616" guiShape="passenger"/>
<flow id="passenger/hatchback_0_0_passenger/hatchback" type="passenger/hatchback" begin="0" end="1800" departLane="free" departPos="free" departSpeed="speedLimit" route="r_0" vehsPerHour="10.260411869399437" guiShape="passenger/hatchback"/>
<flow id="truck_0_0_truck" type="truck" begin="0" end="1800" departLane="free" departPos="free" departSpeed="speedLimit" route="r_0" vehsPerHour="0.17561072122854654" guiShape="truck"/>
<flow id="truck/trailer_0_0_truck/trailer" type="truck/trailer" begin="0" end="1800" departLane="free" departPos="free" departSpeed="speedLimit" route="r_0" vehsPerHour="8.604925340198745" guiShape="truck/trailer"/>
<flow id="disobedient_passenger_0_0_disobedient_passenger" type="disobedient_passenger" begin="0" end="1800" departLane="free" departPos="free" departSpeed="speedLimit" route="r_0" vehsPerHour="2.2510311556248084" guiShape="passenger"/>
<flow id="disobedient_passenger/hatchback_0_0_disobedient_passenger/hatchback" type="disobedient_passenger/hatchback" begin="0" end="1800" departLane="free" departPos="free" departSpeed="speedLimit" route="r_0" vehsPerHour="0.9234370682459494" guiShape="passenger/hatchback"/>
<flow id="disobedient_truck_0_0_disobedient_truck" type="disobedient_truck" begin="0" end="1800" departLane="free" departPos="free" departSpeed="speedLimit" route="r_0" vehsPerHour="0.0035122144245709305" guiShape="truck"/>
<flow id="disobedient_truck/trailer_0_0_disobedient_truck/trailer" type="disobedient_truck/trailer" begin="0" end="1800" departLane="free" departPos="free" departSpeed="speedLimit" route="r_0" vehsPerHour="0.04302462670099373" guiShape="truck/trailer"/>
<flow id="passenger_0_1_passenger" type="passenger" begin="1800" end="3600" departLane="free" departPos="free" departSpeed="speedLimit" route="r_0" vehsPerHour="30.013748741664106" guiShape="passenger"/>
<flow id="passenger/hatchback_0_1_passenger/hatchback" type="passenger/hatchback" begin="1800" end="3600" departLane="free" departPos="free" departSpeed="speedLimit" route="r_0" vehsPerHour="6.840274579599626" guiShape="passenger/hatchback"/>
<flow id="truck_0_1_truck" type="truck" begin="1800" end="3600" departLane="free" departPos="free" departSpeed="speedLimit" route="r_0" vehsPerHour="0.11707381415236436" guiShape="truck"/>
<flow id="truck/trailer_0_1_truck/trailer" type="truck/trailer" begin="1800" end="3600" departLane="free" departPos="free" departSpeed="speedLimit" route="r_0" vehsPerHour="5.736616893465831" guiShape="truck/trailer"/>
<flow id="disobedient_passenger_0_1_disobedient_passenger" type="disobedient_passenger" begin="1800" end="3600" departLane="free" departPos="free" departSpeed="speedLimit" route="r_0" vehsPerHour="1.5006874370832057" guiShape="passenger"/>
<flow id="disobedient_passenger/hatchback_0_1_disobedient_passenger/hatchback" type="disobedient_passenger/hatchback" begin="1800" end="3600" departLane="free" departPos="free" departSpeed="speedLimit" route="r_0" vehsPerHour="0.6156247121639663" guiShape="passenger/hatchback"/>
<flow id="disobedient_truck_0_1_disobedient_truck" type="disobedient_truck" begin="1800" end="3600" departLane="free" departPos="free" departSpeed="speedLimit" route="r_0" vehsPerHour="0.002341476283047287" guiShape="truck"/>
<flow id="disobedient_truck/trailer_0_1_disobedient_truck/trailer" type="disobedient_truck/trailer" begin="1800" end="3600" departLane="free" departPos="free" departSpeed="speedLimit" route="r_0" vehsPerHour="0.028683084467329156" guiShape="truck/trailer"/>
<flow id="passenger_1_0_passenger" type="passenger" begin="3600" end="5400" departLane="free" departPos="free" departSpeed="speedLimit" route="r_0" vehsPerHour="35.03198079213191" guiShape="passenger"/>
<flow id="passenger/hatchback_1_0_passenger/hatchback" type="passenger/hatchback" begin="3600" end="5400" departLane="free" departPos="free" departSpeed="speedLimit" route="r_0" vehsPerHour="7.983953279144967" guiShape="passenger/hatchback"/>
<flow id="truck_1_0_truck" type="truck" begin="3600" end="5400" departLane="free" departPos="free" departSpeed="speedLimit" route="r_0" vehsPerHour="0.1366482955510959" guiShape="truck"/>
<flow id="truck/trailer_1_0_truck/trailer" type="truck/trailer" begin="3600" end="5400" departLane="free" departPos="free" departSpeed="speedLimit" route="r_0" vehsPerHour="6.695766482003672" guiShape="truck/trailer"/>
<flow id="disobedient_passenger_1_0_disobedient_passenger" type="disobedient_passenger" begin="3600" end="5400" departLane="free" departPos="free" departSpeed="speedLimit" route="r_0" vehsPerHour="1.7515990396065961" guiShape="passenger"/>
<flow id="disobedient_passenger/hatchback_1_0_disobedient_passenger/hatchback" type="disobedient_passenger/hatchback" begin="3600" end="5400" departLane="free" departPos="free" departSpeed="speedLimit" route="r_0" vehsPerHour="0.7185557951230471" guiShape="passenger/hatchback"/>
<flow id="disobedient_truck_1_0_disobedient_truck" type="disobedient_truck" begin="3600" end="5400" departLane="free" departPos="free" departSpeed="speedLimit" route="r_0" vehsPerHour="0.002732965911021918" guiShape="truck"/>
<flow id="disobedient_truck/trailer_1_0_disobedient_truck/trailer" type="disobedient_truck/trailer" begin="3600" end="5400" departLane="free" departPos="free" departSpeed="speedLimit" route="r_0" vehsPerHour="0.033478832410018367" guiShape="truck/trailer"/>
<flow id="passenger_1_1_passenger" type="passenger" begin="5400" end="7200" departLane="free" departPos="free" departSpeed="speedLimit" route="r_0" vehsPerHour="17.515990396065956" guiShape="passenger"/>
<flow id="passenger/hatchback_1_1_passenger/hatchback" type="passenger/hatchback" begin="5400" end="7200" departLane="free" departPos="free" departSpeed="speedLimit" route="r_0" vehsPerHour="3.9919766395724836" guiShape="passenger/hatchback"/>
<flow id="truck_1_1_truck" type="truck" begin="5400" end="7200" departLane="free" departPos="free" departSpeed="speedLimit" route="r_0" vehsPerHour="0.06832414777554795" guiShape="truck"/>
<flow id="truck/trailer_1_1_truck/trailer" type="truck/trailer" begin="5400" end="7200" departLane="free" departPos="free" departSpeed="speedLimit" route="r_0" vehsPerHour="3.347883241001836" guiShape="truck/trailer"/>
<flow id="disobedient_passenger_1_1_disobedient_passenger" type="disobedient_passenger" begin="5400" end="7200" departLane="free" departPos="free" departSpeed="speedLimit" route="r_0" vehsPerHour="0.8757995198032981" guiShape="passenger"/>
<flow id="disobedient_passenger/hatchback_1_1_disobedient_passenger/hatchback" type="disobedient_passenger/hatchback" begin="5400" end="7200" departLane="free" departPos="free" departSpeed="speedLimit" route="r_0" vehsPerHour="0.35927789756152356" guiShape="passenger/hatchback"/>
<flow id="disobedient_truck_1_1_disobedient_truck" type="disobedient_truck" begin="5400" end="7200" departLane="free" departPos="free" departSpeed="speedLimit" route="r_0" vehsPerHour="0.001366482955510959" guiShape="truck"/>
<flow id="disobedient_truck/trailer_1_1_disobedient_truck/trailer" type="disobedient_truck/trailer" begin="5400" end="7200" departLane="free" departPos="free" departSpeed="speedLimit" route="r_0" vehsPerHour="0.016739416205009183" guiShape="truck/trailer"/>
<flow id="passenger_2_0_passenger" type="passenger" begin="7200" end="9000" departLane="free" departPos="free" departSpeed="speedLimit" route="r_0" vehsPerHour="16.076333788174946" guiShape="passenger"/>
<flow id="passenger/hatchback_2_0_passenger/hatchback" type="passenger/hatchback" begin="7200" end="9000" departLane="free" departPos="free" departSpeed="speedLimit" route="r_0" vehsPerHour="3.66387212376972" guiShape="passenger/hatchback"/>
<flow id="truck_2_0_truck" type="truck" begin="7200" end="9000" departLane="free" departPos="free" departSpeed="speedLimit" route="r_0" vehsPerHour="0.06270851836496767" guiShape="truck"/>
<flow id="truck/trailer_2_0_truck/trailer" type="truck/trailer" begin="7200" end="9000" departLane="free" departPos="free" departSpeed="speedLimit" route="r_0" vehsPerHour="3.072717399883404" guiShape="truck/trailer"/>
<flow id="disobedient_passenger_2_0_disobedient_passenger" type="disobedient_passenger" begin="7200" end="9000" departLane="free" departPos="free" departSpeed="speedLimit" route="r_0" vehsPerHour="0.8038166894087474" guiShape="passenger"/>
<flow id="disobedient_passenger/hatchback_2_0_disobedient_passenger/hatchback" type="disobedient_passenger/hatchback" begin="7200" end="9000" departLane="free" departPos="free" departSpeed="speedLimit" route="r_0" vehsPerHour="0.3297484911392748" guiShape="passenger/hatchback"/>
<flow id="disobedient_truck_2_0_disobedient_truck" type="disobedient_truck" begin="7200" end="9000" departLane="free" departPos="free" departSpeed="speedLimit" route="r_0" vehsPerHour="0.0012541703672993535" guiShape="truck"/>
<flow id="disobedient_truck/trailer_2_0_disobedient_truck/trailer" type="disobedient_truck/trailer" begin="7200" end="9000" departLane="free" departPos="free" departSpeed="speedLimit" route="r_0" vehsPerHour="0.015363586999417022" guiShape="truck/trailer"/>
<flow id="passenger_2_1_passenger" type="passenger" begin="9000" end="10800" departLane="free" departPos="free" departSpeed="speedLimit" route="r_0" vehsPerHour="6.430533515269978" guiShape="passenger"/>
<flow id="passenger/hatchback_2_1_passenger/hatchback" type="passenger/hatchback" begin="9000" end="10800" departLane="free" departPos="free" departSpeed="speedLimit" route="r_0" vehsPerHour="1.4655488495078879" guiShape="passenger/hatchback"/>
<flow id="truck_2_1_truck" type="truck" begin="9000" end="10800" departLane="free" departPos="free" departSpeed="speedLimit" route="r_0" vehsPerHour="0.02508340734598707" guiShape="truck"/>
<flow id="truck/trailer_2_1_truck/trailer" type="truck/trailer" begin="9000" end="10800" departLane="free" departPos="free" departSpeed="speedLimit" route="r_0" vehsPerHour="1.2290869599533616" guiShape="truck/trailer"/>
<flow id="disobedient_passenger_2_1_disobedient_passenger" type="disobedient_passenger" begin="9000" end="10800" departLane="free" departPos="free" departSpeed="speedLimit" route="r_0" vehsPerHour="0.32152667576349897" guiShape="passenger"/>
<flow id="disobedient_passenger/hatchback_2_1_disobedient_passenger/hatchback" type="disobedient_passenger/hatchback" begin="9000" end="10800" departLane="free" departPos="free" departSpeed="speedLimit" route="r_0" vehsPerHour="0.13189939645570992" guiShape="passenger/hatchback"/>
<flow id="disobedient_truck_2_1_disobedient_truck" type="disobedient_truck" begin="9000" end="10800" departLane="free" departPos="free" departSpeed="speedLimit" route="r_0" vehsPerHour="0.0005016681469197414" guiShape="truck"/>
<flow id="disobedient_truck/trailer_2_1_disobedient_truck/trailer" type="disobedient_truck/trailer" begin="9000" end="10800" departLane="free" departPos="free" departSpeed="speedLimit" route="r_0" vehsPerHour="0.006145434799766808" guiShape="truck/trailer"/>
<flow id="passenger_3_0_passenger" type="passenger" begin="10800" end="12600" departLane="free" departPos="free" departSpeed="speedLimit" route="r_0" vehsPerHour="7.613102540126091" guiShape="passenger"/>
<flow id="passenger/hatchback_3_0_passenger/hatchback" type="passenger/hatchback" begin="10800" end="12600" departLane="free" departPos="free" departSpeed="speedLimit" route="r_0" vehsPerHour="1.7350618953113321" guiShape="passenger/hatchback"/>
<flow id="truck_3_0_truck" type="truck" begin="10800" end="12600" departLane="free" departPos="free" departSpeed="speedLimit" route="r_0" vehsPerHour="0.029696222207269578" guiShape="truck"/>
<flow id="truck/trailer_3_0_truck/trailer" type="truck/trailer" begin="10800" end="12600" departLane="free" departPos="free" departSpeed="speedLimit" route="r_0" vehsPerHour="1.4551148881562035" guiShape="truck/trailer"/>
<flow id="disobedient_passenger_3_0_disobedient_passenger" type="disobedient_passenger" begin="10800" end="12600" departLane="free" departPos="free" departSpeed="speedLimit" route="r_0" vehsPerHour="0.3806551270063046" guiShape="passenger"/>
<flow id="disobedient_passenger/hatchback_3_0_disobedient_passenger/hatchback" type="disobedient_passenger/hatchback" begin="10800" end="12600" departLane="free" departPos="free" departSpeed="speedLimit" route="r_0" vehsPerHour="0.1561555705780199" guiShape="passenger/hatchback"/>
<flow id="disobedient_truck_3_0_disobedient_truck" type="disobedient_truck" begin="10800" end="12600" departLane="free" departPos="free" departSpeed="speedLimit" route="r_0" vehsPerHour="0.0005939244441453915" guiShape="truck"/>
<flow id="disobedient_truck/trailer_3_0_disobedient_truck/trailer" type="disobedient_truck/trailer" begin="10800" end="12600" departLane="free" departPos="free" departSpeed="speedLimit" route="r_0" vehsPerHour="0.0072755744407810175" guiShape="truck/trailer"/>
<flow id="passenger_3_1_passenger" type="passenger" begin="12600" end="14400" departLane="free" departPos="free" departSpeed="speedLimit" route="r_0" vehsPerHour="11.419653810189137" guiShape="passenger"/>
<flow id="passenger/hatchback_3_1_passenger/hatchback" type="passenger/hatchback" begin="12600" end="14400" departLane="free" departPos="free" departSpeed="speedLimit" route="r_0" vehsPerHour="2.6025928429669984" guiShape="passenger/hatchback"/>
<flow id="truck_3_1_truck" type="truck" begin="12600" end="14400" departLane="free" departPos="free" departSpeed="speedLimit" route="r_0" vehsPerHour="0.04454433331090437" guiShape="truck"/>
<flow id="truck/trailer_3_1_truck/trailer" type="truck/trailer" begin="12600" end="14400" departLane="free" departPos="free" departSpeed="speedLimit" route="r_0" vehsPerHour="2.1826723322343056" guiShape="truck/trailer"/>
<flow id="disobedient_passenger_3_1_disobedient_passenger" type="disobedient_passenger" begin="12600" end="14400" departLane="free" departPos="free" departSpeed="speedLimit" route="r_0" vehsPerHour="0.5709826905094569" guiShape="passenger"/>
<flow id="disobedient_passenger/hatchback_3_1_disobedient_passenger/hatchback" type="disobedient_passenger/hatchback" begin="12600" end="14400" departLane="free" departPos="free" departSpeed="speedLimit" route="r_0" vehsPerHour="0.23423335586702987" guiShape="passenger/hatchback"/>
<flow id="disobedient_truck_3_1_disobedient_truck" type="disobedient_truck" begin="12600" end="14400" departLane="free" departPos="free" departSpeed="speedLimit" route="r_0" vehsPerHour="0.0008908866662180873" guiShape="truck"/>
<flow id="disobedient_truck/trailer_3_1_disobedient_truck/trailer" type="disobedient_truck/trailer" begin="12600" end="14400" departLane="free" departPos="free" departSpeed="speedLimit" route="r_0" vehsPerHour="0.010913361661171527" guiShape="truck/trailer"/>
<flow id="passenger_4_0_passenger" type="passenger" begin="14400" end="16200" departLane="free" departPos="free" departSpeed="speedLimit" route="r_0" vehsPerHour="27.039212047207833" guiShape="passenger"/>
<flow id="passenger/hatchback_4_0_passenger/hatchback" type="passenger/hatchback" begin="14400" end="16200" departLane="free" departPos="free" departSpeed="speedLimit" route="r_0" vehsPerHour="6.162363669093102" guiShape="passenger/hatchback"/>
<flow id="truck_4_0_truck" type="truck" begin="14400" end="16200" departLane="free" departPos="free" departSpeed="speedLimit" route="r_0" vehsPerHour="0.10547111969544881" guiShape="truck"/>
<flow id="truck/trailer_4_0_truck/trailer" type="truck/trailer" begin="14400" end="16200" departLane="free" departPos="free" departSpeed="speedLimit" route="r_0" vehsPerHour="5.168084865076971" guiShape="truck/trailer"/>
<flow id="disobedient_passenger_4_0_disobedient_passenger" type="disobedient_passenger" begin="14400" end="16200" departLane="free" departPos="free" departSpeed="speedLimit" route="r_0" vehsPerHour="1.3519606023603918" guiShape="passenger"/>
<flow id="disobedient_passenger/hatchback_4_0_disobedient_passenger/hatchback" type="disobedient_passenger/hatchback" begin="14400" end="16200" departLane="free" departPos="free" departSpeed="speedLimit" route="r_0" vehsPerHour="0.5546127302183792" guiShape="passenger/hatchback"/>
<flow id="disobedient_truck_4_0_disobedient_truck" type="disobedient_truck" begin="14400" end="16200" departLane="free" departPos="free" departSpeed="speedLimit" route="r_0" vehsPerHour="0.0021094223939089763" guiShape="truck"/>
<flow id="disobedient_truck/trailer_4_0_disobedient_truck/trailer" type="disobedient_truck/trailer" begin="14400" end="16200" departLane="free" departPos="free" departSpeed="speedLimit" route="r_0" vehsPerHour="0.02584042432538486" guiShape="truck/trailer"/>
<flow id="passenger_4_1_passenger" type="passenger" begin="16200" end="18000" departLane="free" departPos="free" departSpeed="speedLimit" route="r_0" vehsPerHour="38.62744578172548" guiShape="passenger"/>
<flow id="passenger/hatchback_4_1_passenger/hatchback" type="passenger/hatchback" begin="16200" end="18000" departLane="free" departPos="free" departSpeed="speedLimit" route="r_0" vehsPerHour="8.803376670133003" guiShape="passenger/hatchback"/>
<flow id="truck_4_1_truck" type="truck" begin="16200" end="18000" departLane="free" departPos="free" departSpeed="speedLimit" route="r_0" vehsPerHour="0.15067302813635547" guiShape="truck"/>
<flow id="truck/trailer_4_1_truck/trailer" type="truck/trailer" begin="16200" end="18000" departLane="free" departPos="free" departSpeed="speedLimit" route="r_0" vehsPerHour="7.382978378681388" guiShape="truck/trailer"/>
<flow id="disobedient_passenger_4_1_disobedient_passenger" type="disobedient_passenger" begin="16200" end="18000" departLane="free" departPos="free" departSpeed="speedLimit" route="r_0" vehsPerHour="1.9313722890862743" guiShape="passenger"/>
<flow id="disobedient_passenger/hatchback_4_1_disobedient_passenger/hatchback" type="disobedient_passenger/hatchback" begin="16200" end="18000" departLane="free" departPos="free" departSpeed="speedLimit" route="r_0" vehsPerHour="0.7923039003119703" guiShape="passenger/hatchback"/>
<flow id="disobedient_truck_4_1_disobedient_truck" type="disobedient_truck" begin="16200" end="18000" departLane="free" departPos="free" departSpeed="speedLimit" route="r_0" vehsPerHour="0.003013460562727109" guiShape="truck"/>
<flow id="disobedient_truck/trailer_4_1_disobedient_truck/trailer" type="disobedient_truck/trailer" begin="16200" end="18000" departLane="free" departPos="free" departSpeed="speedLimit" route="r_0" vehsPerHour="0.036914891893406944" guiShape="truck/trailer"/>
<flow id="passenger_5_0_passenger" type="passenger" begin="18000" end="19800" departLane="free" departPos="free" departSpeed="speedLimit" route="r_0" vehsPerHour="53.28035558278278" guiShape="passenger"/>
<flow id="passenger/hatchback_5_0_passenger/hatchback" type="passenger/hatchback" begin="18000" end="19800" departLane="free" departPos="free" departSpeed="speedLimit" route="r_0" vehsPerHour="12.142843768763123" guiShape="passenger/hatchback"/>
<flow id="truck_5_0_truck" type="truck" begin="18000" end="19800" departLane="free" departPos="free" departSpeed="speedLimit" route="r_0" vehsPerHour="0.2078292352335042" guiShape="truck"/>
<flow id="truck/trailer_5_0_truck/trailer" type="truck/trailer" begin="18000" end="19800" departLane="free" departPos="free" departSpeed="speedLimit" route="r_0" vehsPerHour="10.183632526441665" guiShape="truck/trailer"/>
<flow id="disobedient_passenger_5_0_disobedient_passenger" type="disobedient_passenger" begin="18000" end="19800" departLane="free" departPos="free" departSpeed="speedLimit" route="r_0" vehsPerHour="2.6640177791391393" guiShape="passenger"/>
<flow id="disobedient_passenger/hatchback_5_0_disobedient_passenger/hatchback" type="disobedient_passenger/hatchback" begin="18000" end="19800" departLane="free" departPos="free" departSpeed="speedLimit" route="r_0" vehsPerHour="1.0928559391886812" guiShape="passenger/hatchback"/>
<flow id="disobedient_truck_5_0_disobedient_truck" type="disobedient_truck" begin="18000" end="19800" departLane="free" departPos="free" departSpeed="speedLimit" route="r_0" vehsPerHour="0.004156584704670083" guiShape="truck"/>
<flow id="disobedient_truck/trailer_5_0_disobedient_truck/trailer" type="disobedient_truck/trailer" begin="18000" end="19800" departLane="free" departPos="free" departSpeed="speedLimit" route="r_0" vehsPerHour="0.05091816263220832" guiShape="truck/trailer"/>
<flow id="passenger_5_1_passenger" type="passenger" begin="19800" end="21600" departLane="free" departPos="free" departSpeed="speedLimit" route="r_0" vehsPerHour="88.80059263797129" guiShape="passenger"/>
<flow id="passenger/hatchback_5_1_passenger/hatchback" type="passenger/hatchback" begin="19800" end="21600" departLane="free" departPos="free" departSpeed="speedLimit" route="r_0" vehsPerHour="20.238072947938537" guiShape="passenger/hatchback"/>
<flow id="truck_5_1_truck" type="truck" begin="19800" end="21600" departLane="free" departPos="free" departSpeed="speedLimit" route="r_0" vehsPerHour="0.34638205872250694" guiShape="truck"/>
<flow id="truck/trailer_5_1_truck/trailer" type="truck/trailer" begin="19800" end="21600" departLane="free" departPos="free" departSpeed="speedLimit" route="r_0" vehsPerHour="16.972720877402775" guiShape="truck/trailer"/>
<flow id="disobedient_passenger_5_1_disobedient_passenger" type="disobedient_passenger" begin="19800" end="21600" departLane="free" departPos="free" departSpeed="speedLimit" route="r_0" vehsPerHour="4.4400296318985655" guiShape="passenger"/>
<flow id="disobedient_passenger/hatchback_5_1_disobedient_passenger/hatchback" type="disobedient_passenger/hatchback" begin="19800" end="21600" departLane="free" departPos="free" departSpeed="speedLimit" route="r_0" vehsPerHour="1.8214265653144683" guiShape="passenger/hatchback"/>
<flow id="disobedient_truck_5_1_disobedient_truck" type="disobedient_truck" begin="19800" end="21600" departLane="free" departPos="free" departSpeed="speedLimit" route="r_0" vehsPerHour="0.006927641174450139" guiShape="truck"/>
<flow id="disobedient_truck/trailer_5_1_disobedient_truck/trailer" type="disobedient_truck/trailer" begin="19800" end="21600" departLane="free" departPos="free" departSpeed="speedLimit" route="r_0" vehsPerHour="0.08486360438701387" guiShape="truck/trailer"/>
<flow id="passenger_6_0_passenger" type="passenger" begin="21600" end="23400" departLane="free" departPos="free" departSpeed="speedLimit" route="r_0" vehsPerHour="233.0607336203288" guiShape="passenger"/>
<flow id="passenger/hatchback_6_0_passenger/hatchback" type="passenger/hatchback" begin="21600" end="23400" departLane="free" departPos="free" departSpeed="speedLimit" route="r_0" vehsPerHour="53.11563795004918" guiShape="passenger/hatchback"/>
<flow id="truck_6_0_truck" type="truck" begin="21600" end="23400" departLane="free" departPos="free" departSpeed="speedLimit" route="r_0" vehsPerHour="0.9090936706684525" guiShape="truck"/>
<flow id="truck/trailer_6_0_truck/trailer" type="truck/trailer" begin="21600" end="23400" departLane="free" departPos="free" departSpeed="speedLimit" route="r_0" vehsPerHour="44.54558986275399" guiShape="truck/trailer"/>
<flow id="disobedient_passenger_6_0_disobedient_passenger" type="disobedient_passenger" begin="21600" end="23400" departLane="free" departPos="free" departSpeed="speedLimit" route="r_0" vehsPerHour="11.653036681016442" guiShape="passenger"/>
<flow id="disobedient_passenger/hatchback_6_0_disobedient_passenger/hatchback" type="disobedient_passenger/hatchback" begin="21600" end="23400" departLane="free" departPos="free" departSpeed="speedLimit" route="r_0" vehsPerHour="4.780407415504426" guiShape="passenger/hatchback"/>
<flow id="disobedient_truck_6_0_disobedient_truck" type="disobedient_truck" begin="21600" end="23400" departLane="free" departPos="free" departSpeed="speedLimit" route="r_0" vehsPerHour="0.01818187341336905" guiShape="truck"/>
<flow id="disobedient_truck/trailer_6_0_disobedient_truck/trailer" type="disobedient_truck/trailer" begin="21600" end="23400" departLane="free" departPos="free" departSpeed="speedLimit" route="r_0" vehsPerHour="0.22272794931377" guiShape="truck/trailer"/>
<flow id="passenger_6_1_passenger" type="passenger" begin="23400" end="25200" departLane="free" departPos="free" departSpeed="speedLimit" route="r_0" vehsPerHour="372.897173792526" guiShape="passenger"/>
<flow id="passenger/hatchback_6_1_passenger/hatchback" type="passenger/hatchback" begin="23400" end="25200" departLane="free" departPos="free" departSpeed="speedLimit" route="r_0" vehsPerHour="84.98502072007868" guiShape="passenger/hatchback"/>
<flow id="truck_6_1_truck" type="truck" begin="23400" end="25200" departLane="free" departPos="free" departSpeed="speedLimit" route="r_0" vehsPerHour="1.4545498730695237" guiShape="truck"/>
<flow id="truck/trailer_6_1_truck/trailer" type="truck/trailer" begin="23400" end="25200" departLane="free" departPos="free" departSpeed="speedLimit" route="r_0" vehsPerHour="71.27294378040638" guiShape="truck/trailer"/>
<flow id="disobedient_passenger_6_1_disobedient_passenger" type="disobedient_passenger" begin="23400" end="25200" departLane="free" departPos="free" departSpeed="speedLimit" route="r_0" vehsPerHour="18.644858689626304" guiShape="passenger"/>
<flow id="disobedient_passenger/hatchback_6_1_disobedient_passenger/hatchback" type="disobedient_passenger/hatchback" begin="23400" end="25200" departLane="free" departPos="free" departSpeed="speedLimit" route="r_0" vehsPerHour="7.648651864807081" guiShape="passenger/hatchback"/>
<flow id="disobedient_truck_6_1_disobedient_truck" type="disobedient_truck" begin="23400" end="25200" departLane="free" departPos="free" departSpeed="speedLimit" route="r_0" vehsPerHour="0.029090997461390475" guiShape="truck"/>
<flow id="disobedient_truck/trailer_6_1_disobedient_truck/trailer" type="disobedient_truck/trailer" begin="23400" end="25200" departLane="free" departPos="free" departSpeed="speedLimit" route="r_0" vehsPerHour="0.3563647189020319" guiShape="truck/trailer"/>
<flow id="passenger_7_0_passenger" type="passenger" begin="25200" end="27000" departLane="free" departPos="free" departSpeed="speedLimit" route="r_0" vehsPerHour="624.6827591108255" guiShape="passenger"/>