<routes>

    <vType id="normal_car" accel="2.6" decel="4.5" sigma="0.5" length="4.5" maxSpeed="180" color="1,0,0"/>
    <vType id="fast_car" accel="3.2" decel="4.9" sigma="0.4" length="4.2" maxSpeed="240" color="0.8,0.8,0"/>
    <vType id="van" accel="1.8" decel="3.2" sigma="0.6" length="6.2" maxSpeed="130" color="1,1,1"/>
    <vType id="bus" accel="1.2" decel="3.8" sigma="0.7" length="12.0" maxSpeed="100" color="1,.5,.5"/>
    <vType id="motorcycle" accel="3.8" decel="6.2" sigma="0.3" length="2.2" maxSpeed="180" color=".2,.2,.8"/>
    <vType id="truck" accel="1.1" decel="3.1" sigma="0.9" length="10.5" maxSpeed="100" color=".4,.4,.4"/>

    <route id="r_0" edges="seg_10_before seg_9_before seg_8_before seg_7_before seg_6_before seg_5_before seg_4_before seg_3_before seg_2_before seg_1_before seg_0_before seg_0_after seg_1_after"/>

<flow id="normal_car_0_0_normal_car" type="normal_car" begin="0" departLane="free" departPos="free" departSpeed="speedLimit" route="r_0" vehsPerHour="93.99043412338305"/>
<flow id="fast_car_0_0_fast_car" type="fast_car" begin="0" departLane="free" departPos="free" departSpeed="speedLimit" route="r_0" vehsPerHour="6.4306636401241475"/>
<flow id="van_0_0_van" type="van" begin="0" departLane="free" departPos="free" departSpeed="speedLimit" route="r_0" vehsPerHour="11.457443428110155"/>
<flow id="bus_0_0_bus" type="bus" begin="0" departLane="free" departPos="free" departSpeed="speedLimit" route="r_0" vehsPerHour="2.0891067285362186"/>
<flow id="motorcycle_0_0_motorcycle" type="motorcycle" begin="0" departLane="free" departPos="free" departSpeed="speedLimit" route="r_0" vehsPerHour="0.13161988606113814"/>
<flow id="truck_0_0_truck" type="truck" begin="0" departLane="free" departPos="free" departSpeed="speedLimit" route="r_0" vehsPerHour="15.631311231706244"/>
<flow id="normal_car_0_1_normal_car" type="normal_car" begin="1800" departLane="free" departPos="free" departSpeed="speedLimit" route="r_0" vehsPerHour="62.09194178879599"/>
<flow id="fast_car_0_1_fast_car" type="fast_car" begin="1800" departLane="free" departPos="free" departSpeed="speedLimit" route="r_0" vehsPerHour="4.248223727552494"/>
<flow id="van_0_1_van" type="van" begin="1800" departLane="free" departPos="free" departSpeed="speedLimit" route="r_0" vehsPerHour="7.569013985537623"/>
<flow id="bus_0_1_bus" type="bus" begin="1800" departLane="free" departPos="free" departSpeed="speedLimit" route="r_0" vehsPerHour="1.3801052691018674"/>
<flow id="motorcycle_0_1_motorcycle" type="motorcycle" begin="1800" departLane="free" departPos="free" departSpeed="speedLimit" route="r_0" vehsPerHour="0.08695070280054146"/>
<flow id="truck_0_1_truck" type="truck" begin="1800" departLane="free" departPos="free" departSpeed="speedLimit" route="r_0" vehsPerHour="10.326353699011113"/>
<flow id="normal_car_1_0_normal_car" type="normal_car" begin="7200" departLane="free" departPos="free" departSpeed="speedLimit" route="r_0" vehsPerHour="57.12867037356119"/>
<flow id="fast_car_1_0_fast_car" type="fast_car" begin="7200" departLane="free" departPos="free" departSpeed="speedLimit" route="r_0" vehsPerHour="3.908645244660079"/>
<flow id="van_1_0_van" type="van" begin="7200" departLane="free" departPos="free" departSpeed="speedLimit" route="r_0" vehsPerHour="6.963990697914977"/>
<flow id="bus_1_0_bus" type="bus" begin="7200" departLane="free" departPos="free" departSpeed="speedLimit" route="r_0" vehsPerHour="1.2697876202280771"/>
<flow id="motorcycle_1_0_motorcycle" type="motorcycle" begin="7200" departLane="free" departPos="free" departSpeed="speedLimit" route="r_0" vehsPerHour="0.0800003655214716"/>
<flow id="truck_1_0_truck" type="truck" begin="7200" departLane="free" departPos="free" departSpeed="speedLimit" route="r_0" vehsPerHour="9.500924590798652"/>
<flow id="normal_car_1_1_normal_car" type="normal_car" begin="9000" departLane="free" departPos="free" departSpeed="speedLimit" route="r_0" vehsPerHour="29.082137434872052"/>
<flow id="fast_car_1_1_fast_car" type="fast_car" begin="9000" departLane="free" departPos="free" departSpeed="speedLimit" route="r_0" vehsPerHour="1.9897497604279988"/>
<flow id="van_1_1_van" type="van" begin="9000" departLane="free" departPos="free" departSpeed="speedLimit" route="r_0" vehsPerHour="3.545115495382902"/>
<flow id="bus_1_1_bus" type="bus" begin="9000" departLane="free" departPos="free" departSpeed="speedLimit" route="r_0" vehsPerHour="0.6464028979337524"/>
<flow id="motorcycle_1_1_motorcycle" type="motorcycle" begin="9000" departLane="free" departPos="free" departSpeed="speedLimit" route="r_0" vehsPerHour="0.04072528924132225"/>
<flow id="truck_1_1_truck" type="truck" begin="9000" departLane="free" departPos="free" departSpeed="speedLimit" route="r_0" vehsPerHour="4.836576676845524"/>
<flow id="normal_car_2_0_normal_car" type="normal_car" begin="14400" departLane="free" departPos="free" departSpeed="speedLimit" route="r_0" vehsPerHour="30.33725611076832"/>
<flow id="fast_car_2_0_fast_car" type="fast_car" begin="14400" departLane="free" departPos="free" departSpeed="speedLimit" route="r_0" vehsPerHour="2.075622818770634"/>
<flow id="van_2_0_van" type="van" begin="14400" departLane="free" departPos="free" departSpeed="speedLimit" route="r_0" vehsPerHour="3.6981145889477696"/>
<flow id="bus_2_0_bus" type="bus" begin="14400" departLane="free" departPos="free" departSpeed="speedLimit" route="r_0" vehsPerHour="0.6743001716869973"/>
<flow id="motorcycle_2_0_motorcycle" type="motorcycle" begin="14400" departLane="free" departPos="free" departSpeed="speedLimit" route="r_0" vehsPerHour="0.04248289977536674"/>
<flow id="truck_2_0_truck" type="truck" begin="14400" departLane="free" departPos="free" departSpeed="speedLimit" route="r_0" vehsPerHour="5.045312287428055"/>
<flow id="normal_car_2_1_normal_car" type="normal_car" begin="16200" departLane="free" departPos="free" departSpeed="speedLimit" route="r_0" vehsPerHour="12.85531267091116"/>
<flow id="fast_car_2_1_fast_car" type="fast_car" begin="16200" departLane="free" departPos="free" departSpeed="speedLimit" route="r_0" vehsPerHour="0.8795383545812279"/>
<flow id="van_2_1_van" type="van" begin="16200" departLane="free" departPos="free" departSpeed="speedLimit" route="r_0" vehsPerHour="1.5670639150818597"/>
<flow id="bus_2_1_bus" type="bus" begin="16200" departLane="free" departPos="free" departSpeed="speedLimit" route="r_0" vehsPerHour="0.28573248382896993"/>
<flow id="motorcycle_2_1_motorcycle" type="motorcycle" begin="16200" departLane="free" departPos="free" departSpeed="speedLimit" route="r_0" vehsPerHour="0.018001989296107426"/>
<flow id="truck_2_1_truck" type="truck" begin="16200" departLane="free" departPos="free" departSpeed="speedLimit" route="r_0" vehsPerHour="2.1379345165713812"/>
<flow id="normal_car_3_0_normal_car" type="normal_car" begin="21600" departLane="free" departPos="free" departSpeed="speedLimit" route="r_0" vehsPerHour="12.52141048132023"/>
<flow id="fast_car_3_0_fast_car" type="fast_car" begin="21600" departLane="free" departPos="free" departSpeed="speedLimit" route="r_0" vehsPerHour="0.8566933417883138"/>
<flow id="van_3_0_van" type="van" begin="21600" departLane="free" departPos="free" departSpeed="speedLimit" route="r_0" vehsPerHour="1.5263612043917678"/>
<flow id="bus_3_0_bus" type="bus" begin="21600" departLane="free" departPos="free" departSpeed="speedLimit" route="r_0" vehsPerHour="0.27831090611786274"/>
<flow id="motorcycle_3_0_motorcycle" type="motorcycle" begin="21600" departLane="free" departPos="free" departSpeed="speedLimit" route="r_0" vehsPerHour="0.017534408009145488"/>
<flow id="truck_3_0_truck" type="truck" begin="21600" departLane="free" departPos="free" departSpeed="speedLimit" route="r_0" vehsPerHour="2.082404088447254"/>
<flow id="normal_car_3_1_normal_car" type="normal_car" begin="23400" departLane="free" departPos="free" departSpeed="speedLimit" route="r_0" vehsPerHour="17.633988661771156"/>
<flow id="fast_car_3_1_fast_car" type="fast_car" begin="23400" departLane="free" departPos="free" departSpeed="speedLimit" route="r_0" vehsPerHour="1.2064871364329819"/>
<flow id="van_3_1_van" type="van" begin="23400" departLane="free" departPos="free" departSpeed="speedLimit" route="r_0" vehsPerHour="2.149585001798764"/>
<flow id="bus_3_1_bus" type="bus" begin="23400" departLane="free" departPos="free" departSpeed="speedLimit" route="r_0" vehsPerHour="0.39194716683484915"/>
<flow id="motorcycle_3_1_motorcycle" type="motorcycle" begin="23400" departLane="free" departPos="free" departSpeed="speedLimit" route="r_0" vehsPerHour="0.02469382762312728"/>
<flow id="truck_3_1_truck" type="truck" begin="23400" departLane="free" departPos="free" departSpeed="speedLimit" route="r_0" vehsPerHour="2.932664026923027"/>
<flow id="normal_car_4_0_normal_car" type="normal_car" begin="28800" departLane="free" departPos="free" departSpeed="speedLimit" route="r_0" vehsPerHour="42.761352336022426"/>
<flow id="fast_car_4_0_fast_car" type="fast_car" begin="28800" departLane="free" departPos="free" departSpeed="speedLimit" route="r_0" vehsPerHour="2.9256580867455146"/>
<flow id="van_4_0_van" type="van" begin="28800" departLane="free" departPos="free" departSpeed="speedLimit" route="r_0" vehsPerHour="5.212613175680356"/>
<flow id="bus_4_0_bus" type="bus" begin="28800" departLane="free" departPos="free" departSpeed="speedLimit" route="r_0" vehsPerHour="0.9504480931455558"/>
<flow id="motorcycle_4_0_motorcycle" type="motorcycle" begin="28800" departLane="free" departPos="free" departSpeed="speedLimit" route="r_0" vehsPerHour="0.05988103337089762"/>
<flow id="truck_4_0_truck" type="truck" begin="28800" departLane="free" departPos="free" departSpeed="speedLimit" route="r_0" vehsPerHour="7.111532288228106"/>
<flow id="normal_car_4_1_normal_car" type="normal_car" begin="30600" departLane="free" departPos="free" departSpeed="speedLimit" route="r_0" vehsPerHour="60.082369399868796"/>
<flow id="fast_car_4_1_fast_car" type="fast_car" begin="30600" departLane="free" departPos="free" departSpeed="speedLimit" route="r_0" vehsPerHour="4.110732245422436"/>
<flow id="van_4_1_van" type="van" begin="30600" departLane="free" departPos="free" departSpeed="speedLimit" route="r_0" vehsPerHour="7.3240469080305575"/>
<flow id="bus_4_1_bus" type="bus" begin="30600" departLane="free" departPos="free" departSpeed="speedLimit" route="r_0" vehsPerHour="1.3354389023769586"/>
<flow id="motorcycle_4_1_motorcycle" type="motorcycle" begin="30600" departLane="free" departPos="free" departSpeed="speedLimit" route="r_0" vehsPerHour="0.0841365899460887"/>
<flow id="truck_4_1_truck" type="truck" begin="30600" departLane="free" departPos="free" departSpeed="speedLimit" route="r_0" vehsPerHour="9.992146800756672"/>
<flow id="normal_car_5_0_normal_car" type="normal_car" begin="36000" departLane="free" departPos="free" departSpeed="speedLimit" route="r_0" vehsPerHour="85.74741819498486"/>
<flow id="fast_car_5_0_fast_car" type="fast_car" begin="36000" departLane="free" departPos="free" departSpeed="speedLimit" route="r_0" vehsPerHour="5.8666906857474315"/>
<flow id="van_5_0_van" type="van" begin="36000" departLane="free" departPos="free" departSpeed="speedLimit" route="r_0" vehsPerHour="10.452618952540067"/>
<flow id="bus_5_0_bus" type="bus" begin="36000" departLane="free" departPos="free" departSpeed="speedLimit" route="r_0" vehsPerHour="1.9058908491751108"/>
<flow id="motorcycle_5_0_motorcycle" type="motorcycle" begin="36000" departLane="free" departPos="free" departSpeed="speedLimit" route="r_0" vehsPerHour="0.12007674523606555"/>
<flow id="truck_5_0_truck" type="truck" begin="36000" departLane="free" departPos="free" departSpeed="speedLimit" route="r_0" vehsPerHour="14.260436113760077"/>
<flow id="normal_car_5_1_normal_car" type="normal_car" begin="37800" departLane="free" departPos="free" departSpeed="speedLimit" route="r_0" vehsPerHour="138.44271256548535"/>
<flow id="fast_car_5_1_fast_car" type="fast_car" begin="37800" departLane="free" departPos="free" departSpeed="speedLimit" route="r_0" vehsPerHour="9.472011979073734"/>
<flow id="van_5_1_van" type="van" begin="37800" departLane="free" departPos="free" departSpeed="speedLimit" route="r_0" vehsPerHour="16.876180667182883"/>
<flow id="bus_5_1_bus" type="bus" begin="37800" departLane="free" departPos="free" departSpeed="speedLimit" route="r_0" vehsPerHour="3.0771387007075037"/>
<flow id="motorcycle_5_1_motorcycle" type="motorcycle" begin="37800" departLane="free" departPos="free" departSpeed="speedLimit" route="r_0" vehsPerHour="0.19386881467047967"/>
<flow id="truck_5_1_truck" type="truck" begin="37800" departLane="free" departPos="free" departSpeed="speedLimit" route="r_0" vehsPerHour="23.024057161306136"/>
<flow id="normal_car_6_0_normal_car" type="normal_car" begin="43200" departLane="free" departPos="free" departSpeed="speedLimit" route="r_0" vehsPerHour="346.4880603808859"/>
<flow id="fast_car_6_0_fast_car" type="fast_car" begin="43200" departLane="free" departPos="free" departSpeed="speedLimit" route="r_0" vehsPerHour="23.706116398010995"/>
<flow id="van_6_0_van" type="van" begin="43200" departLane="free" departPos="free" departSpeed="speedLimit" route="r_0" vehsPerHour="42.23692961262733"/>
<flow id="bus_6_0_bus" type="bus" begin="43200" departLane="free" departPos="free" departSpeed="speedLimit" route="r_0" vehsPerHour="7.701321363714096"/>
<flow id="motorcycle_6_0_motorcycle" type="motorcycle" begin="43200" departLane="free" departPos="free" departSpeed="speedLimit" route="r_0" vehsPerHour="0.48520596222601503"/>
<flow id="truck_6_0_truck" type="truck" begin="43200" departLane="free" departPos="free" departSpeed="speedLimit" route="r_0" vehsPerHour="57.623552443369746"/>
<flow id="normal_car_6_1_normal_car" type="normal_car" begin="45000" departLane="free" departPos="free" departSpeed="speedLimit" route="r_0" vehsPerHour="511.8775072126305"/>
<flow id="fast_car_6_1_fast_car" type="fast_car" begin="45000" departLane="free" departPos="free" departSpeed="speedLimit" route="r_0" vehsPerHour="35.021777530132006"/>
<flow id="van_6_1_van" type="van" begin="45000" departLane="free" departPos="free" departSpeed="speedLimit" route="r_0" vehsPerHour="62.3979199129128"/>
<flow id="bus_6_1_bus" type="bus" begin="45000" departLane="free" departPos="free" departSpeed="speedLimit" route="r_0" vehsPerHour="11.377399779859244"/>
<flow id="motorcycle_6_1_motorcycle" type="motorcycle" begin="45000" departLane="free" departPos="free" departSpeed="speedLimit" route="r_0" vehsPerHour="0.7168097456401112"/>
<flow id="truck_6_1_truck" type="truck" begin="45000" departLane="free" departPos="free" departSpeed="speedLimit" route="r_0" vehsPerHour="85.12905278474511"/>
<flow id="normal_car_7_0_normal_car" type="normal_car" begin="50400" departLane="free" departPos="free" departSpeed="speedLimit" route="r_0" vehsPerHour="1098.534064834934"/>
<flow id="fast_car_7_0_fast_car" type="fast_car" begin="50400" departLane="free" departPos="free" departSpeed="speedLimit" route="r_0" vehsPerHour="75.15980891096157"/>
<flow id="van_7_0_van" type="van" begin="50400" departLane="free" departPos="free" departSpeed="speedLimit" route="r_0" vehsPerHour="133.9114136357297"/>
<flow id="bus_7_0_bus" type="bus" begin="50400" departLane="free" departPos="free" departSpeed="speedLimit" route="r_0" vehsPerHour="24.41689867460631"/>
<flow id="motorcycle_7_0_motorcycle" type="motorcycle" begin="50400" departLane="free" departPos="free" departSpeed="speedLimit" route="r_0" vehsPerHour="1.5383366381524344"/>
<flow id="truck_7_0_truck" type="truck" begin="50400" departLane="free" departPos="free" departSpeed="speedLimit" route="r_0" vehsPerHour="182.69442019519587"/>
<flow id="normal_car_7_1_normal_car" type="normal_car" begin="52200" departLane="free" departPos="free" departSpeed="speedLimit" route="r_0" vehsPerHour="1290.4308639223789"/>
<flow id="fast_car_7_1_fast_car" type="fast_car" begin="52200" departLane="free" departPos="free" departSpeed="speedLimit" route="r_0" vehsPerHour="88.28905743563499"/>
<flow id="van_7_1_van" type="van" begin="52200" departLane="free" departPos="free" departSpeed="speedLimit" route="r_0" vehsPerHour="157.30365285758086"/>
<flow id="bus_7_1_bus" type="bus" begin="52200" departLane="free" departPos="free" departSpeed="speedLimit" route="r_0" vehsPerHour="28.682150749427922"/>
<flow id="motorcycle_7_1_motorcycle" type="motorcycle" begin="52200" departLane="free" departPos="free" departSpeed="speedLimit" route="r_0" vehsPerHour="1.8070600999276047"/>
<flow id="truck_7_1_truck" type="truck" begin="52200" departLane="free" departPos="free" departSpeed="speedLimit" route="r_0" vehsPerHour="214.60829120643538"/>
<flow id="normal_car_8_0_normal_car" type="normal_car" begin="57600" departLane="free" departPos="free" departSpeed="speedLimit" route="r_0" vehsPerHour="1586.7081161708697"/>
<flow id="fast_car_8_0_fast_car" type="fast_car" begin="57600" departLane="free" departPos="free" departSpeed="speedLimit" route="r_0" vehsPerHour="108.55983681015293"/>
<flow id="van_8_0_van" type="van" begin="57600" departLane="free" departPos="free" departSpeed="speedLimit" route="r_0" vehsPerHour="193.41987987933157"/>
<flow id="bus_8_0_bus" type="bus" begin="57600" departLane="free" departPos="free" departSpeed="speedLimit" route="r_0" vehsPerHour="35.267446444222045"/>
<flow id="motorcycle_8_0_motorcycle" type="motorcycle" begin="57600" departLane="free" departPos="free" departSpeed="speedLimit" route="r_0" vehsPerHour="2.2219531531106838"/>
<flow id="truck_8_0_truck" type="truck" begin="57600" departLane="free" departPos="free" departSpeed="speedLimit" route="r_0" vehsPerHour="263.88141122087677"/>
<flow id="normal_car_8_1_normal_car" type="normal_car" begin="59400" departLane="free" departPos="free" departSpeed="speedLimit" route="r_0" vehsPerHour="1562.5178336198107"/>
<flow id="fast_car_8_1_fast_car" type="fast_car" begin="59400" departLane="free" departPos="free" departSpeed="speedLimit" route="r_0" vehsPerHour="106.90477933652514"/>
<flow id="van_8_1_van" type="van" begin="59400" departLane="free" departPos="free" departSpeed="speedLimit" route="r_0" vehsPerHour="190.47108198916618"/>
<flow id="bus_8_1_bus" type="bus" begin="59400" departLane="free" departPos="free" departSpeed="speedLimit" route="r_0" vehsPerHour="34.72977383408951"/>
<flow id="motorcycle_8_1_motorcycle" type="motorcycle" begin="59400" departLane="free" departPos="free" departSpeed="speedLimit" route="r_0" vehsPerHour="2.188078192718677"/>
<flow id="truck_8_1_truck" type="truck" begin="59400" departLane="free" departPos="free" departSpeed="speedLimit" route="r_0" vehsPerHour="259.8583865496411"/>
<flow id="normal_car_9_0_normal_car" type="normal_car" begin="64800" departLane="free" departPos="free" departSpeed="speedLimit" route="r_0" vehsPerHour="1524.4903165497915"/>
<flow id="fast_car_9_0_fast_car" type="fast_car" begin="64800" departLane="free" departPos="free" departSpeed="speedLimit" route="r_0" vehsPerHour="104.30300210645768"/>
<flow id="van_9_0_van" type="van" begin="64800" departLane="free" departPos="free" departSpeed="speedLimit" route="r_0" vehsPerHour="185.83552381130642"/>
<flow id="bus_9_0_bus" type="bus" begin="64800" departLane="free" departPos="free" departSpeed="speedLimit" route="r_0" vehsPerHour="33.884543758056274"/>
<flow id="motorcycle_9_0_motorcycle" type="motorcycle" begin="64800" departLane="free" departPos="free" departSpeed="speedLimit" route="r_0" vehsPerHour="2.1348262047836757"/>
<flow id="truck_9_0_truck" type="truck" begin="64800" departLane="free" departPos="free" departSpeed="speedLimit" route="r_0" vehsPerHour="253.5341264242949"/>
<flow id="normal_car_9_1_normal_car" type="normal_car" begin="66600" departLane="free" departPos="free" departSpeed="speedLimit" route="r_0" vehsPerHour="1241.6306876562685"/>
<flow id="fast_car_9_1_fast_car" type="fast_car" begin="66600" departLane="free" departPos="free" departSpeed="speedLimit" route="r_0" vehsPerHour="84.95023341515892"/>
<flow id="van_9_1_van" type="van" begin="66600" departLane="free" departPos="free" departSpeed="speedLimit" route="r_0" vehsPerHour="151.35490643390983"/>
<flow id="bus_9_1_bus" type="bus" begin="66600" departLane="free" departPos="free" departSpeed="speedLimit" route="r_0" vehsPerHour="27.597478915085137"/>
<flow id="motorcycle_9_1_motorcycle" type="motorcycle" begin="66600" departLane="free" departPos="free" departSpeed="speedLimit" route="r_0" vehsPerHour="1.7387225749463158"/>
<flow id="truck_9_1_truck" type="truck" begin="66600" departLane="free" departPos="free" departSpeed="speedLimit" route="r_0" vehsPerHour="206.49245739321628"/>
<flow id="normal_car_10_0_normal_car" type="normal_car" begin="72000" departLane="free" departPos="free" departSpeed="speedLimit" route="r_0" vehsPerHour="1427.4955931022723"/>
<flow id="fast_car_10_0_fast_car" type="fast_car" begin="72000" departLane="free" departPos="free" departSpeed="speedLimit" route="r_0" vehsPerHour="97.6667901645162"/>
<flow id="van_10_0_van" type="van" begin="72000" departLane="free" departPos="free" departSpeed="speedLimit" route="r_0" vehsPerHour="174.01185721065747"/>
<flow id="bus_10_0_bus" type="bus" begin="72000" departLane="free" departPos="free" departSpeed="speedLimit" route="r_0" vehsPerHour="31.728661286860085"/>
<flow id="motorcycle_10_0_motorcycle" type="motorcycle" begin="72000" departLane="free" departPos="free" departSpeed="speedLimit" route="r_0" vehsPerHour="1.9989992499689409"/>
<flow id="truck_10_0_truck" type="truck" begin="72000" departLane="free" departPos="free" departSpeed="speedLimit" route="r_0" vehsPerHour="237.40317943823075"/>
<flow id="normal_car_10_1_normal_car" type="normal_car" begin="73800" departLane="free" departPos="free" departSpeed="speedLimit" route="r_0" vehsPerHour="1266.5795547500122"/>
<flow id="fast_car_10_1_fast_car" type="fast_car" begin="73800" departLane="free" departPos="free" departSpeed="speedLimit" route="r_0" vehsPerHour="86.65719193682526"/>
<flow id="van_10_1_van" type="van" begin="73800" departLane="free" departPos="free" departSpeed="speedLimit" route="r_0" vehsPerHour="154.39617585657007"/>
<flow id="bus_10_1_bus" type="bus" begin="73800" departLane="free" departPos="free" departSpeed="speedLimit" route="r_0" vehsPerHour="28.152012433320365"/>
<flow id="motorcycle_10_1_motorcycle" type="motorcycle" begin="73800" departLane="free" departPos="free" departSpeed="speedLimit" route="r_0" vehsPerHour="1.773659822282809"/>
<flow id="truck_10_1_truck" type="truck" begin="73800" departLane="free" departPos="free" departSpeed="speedLimit" route="r_0" vehsPerHour="210.6416403399494"/>
<flow id="normal_car_11_0_normal_car" type="normal_car" begin="79200" departLane="free" departPos="free" departSpeed="speedLimit" route="r_0" vehsPerHour="1427.5722588289102"/>
<flow id="fast_car_11_0_fast_car" type="fast_car" begin="79200" departLane="free" departPos="free" departSpeed="speedLimit" route="r_0" vehsPerHour="97.67203550150536"/>
<flow id="van_11_0_van" type="van" begin="79200" departLane="free" departPos="free" departSpeed="speedLimit" route="r_0" vehsPerHour="174.02120277049045"/>
<flow id="bus_11_0_bus" type="bus" begin="79200" departLane="free" departPos="free" departSpeed="speedLimit" route="r_0" vehsPerHour="31.73036532075312"/>
<flow id="motorcycle_11_0_motorcycle" type="motorcycle" begin="79200" departLane="free" departPos="free" departSpeed="speedLimit" route="r_0" vehsPerHour="1.9991066091305298"/>
<flow id="truck_11_0_truck" type="truck" begin="79200" departLane="free" departPos="free" departSpeed="speedLimit" route="r_0" vehsPerHour="237.41592952120524"/>
<flow id="normal_car_11_1_normal_car" type="normal_car" begin="81000" departLane="free" departPos="free" departSpeed="speedLimit" route="r_0" vehsPerHour="1636.7759759862113"/>
<flow id="fast_car_11_1_fast_car" type="fast_car" begin="81000" departLane="free" departPos="free" departSpeed="speedLimit" route="r_0" vehsPerHour="111.98539355596702"/>
<flow id="van_11_1_van" type="van" begin="81000" departLane="free" departPos="free" departSpeed="speedLimit" route="r_0" vehsPerHour="199.5231570558981"/>
<flow id="bus_11_1_bus" type="bus" begin="81000" departLane="free" departPos="free" departSpeed="speedLimit" route="r_0" vehsPerHour="36.380294829264415"/>
<flow id="motorcycle_11_1_motorcycle" type="motorcycle" begin="81000" departLane="free" departPos="free" departSpeed="speedLimit" route="r_0" vehsPerHour="2.2920658838974104"/>
<flow id="truck_11_1_truck" type="truck" begin="81000" departLane="free" departPos="free" departSpeed="speedLimit" route="r_0" vehsPerHour="272.20807027696407"/>
<flow id="normal_car_12_0_normal_car" type="normal_car" begin="86400" departLane="free" departPos="free" departSpeed="speedLimit" route="r_0" vehsPerHour="1752.597207032893"/>
<flow id="fast_car_12_0_fast_car" type="fast_car" begin="86400" departLane="free" departPos="free" departSpeed="speedLimit" route="r_0" vehsPerHour="119.90968272637974"/>
<flow id="van_12_0_van" type="van" begin="86400" departLane="free" departPos="free" departSpeed="speedLimit" route="r_0" vehsPerHour="213.64177683745413"/>
<flow id="bus_12_0_bus" type="bus" begin="86400" departLane="free" departPos="free" departSpeed="speedLimit" route="r_0" vehsPerHour="38.954630349082755"/>
<flow id="motorcycle_12_0_motorcycle" type="motorcycle" begin="86400" departLane="free" departPos="free" departSpeed="speedLimit" route="r_0" vehsPerHour="2.4542566150713236"/>
<flow id="truck_12_0_truck" type="truck" begin="86400" departLane="free" departPos="free" departSpeed="speedLimit" route="r_0" vehsPerHour="291.470006096448"/>
<flow id="normal_car_12_1_normal_car" type="normal_car" begin="88200" departLane="free" departPos="free" departSpeed="speedLimit" route="r_0" vehsPerHour="1853.8486683148865"/>
<flow id="fast_car_12_1_fast_car" type="fast_car" begin="88200" departLane="free" departPos="free" departSpeed="speedLimit" route="r_0" vehsPerHour="126.83713334035204"/>
<flow id="van_12_1_van" type="van" begin="88200" departLane="free" departPos="free" departSpeed="speedLimit" route="r_0" vehsPerHour="225.98434021075508"/>
<flow id="bus_12_1_bus" type="bus" begin="88200" departLane="free" departPos="free" departSpeed="speedLimit" route="r_0" vehsPerHour="41.205126487452155"/>
<flow id="motorcycle_12_1_motorcycle" type="motorcycle" begin="88200" departLane="free" departPos="free" departSpeed="speedLimit" route="r_0" vehsPerHour="2.5960445099965184"/>
<flow id="truck_12_1_truck" type="truck" begin="88200" departLane="free" departPos="free" departSpeed="speedLimit" route="r_0" vehsPerHour="308.3088803789762"/>
<flow id="normal_car_13_0_normal_car" type="normal_car" begin="93600" departLane="free" departPos="free" departSpeed="speedLimit" route="r_0" vehsPerHour="1755.7351598674054"/>
<flow id="fast_car_13_0_fast_car" type="fast_car" begin="93600" departLane="free" departPos="free" departSpeed="speedLimit" route="r_0" vehsPerHour="120.12437605539272"/>
<flow id="van_13_0_van" type="van" begin="93600" departLane="free" departPos="free" departSpeed="speedLimit" route="r_0" vehsPerHour="214.02429360542976"/>
<flow id="bus_13_0_bus" type="bus" begin="93600" departLane="free" departPos="free" departSpeed="speedLimit" route="r_0" vehsPerHour="39.024377004064725"/>
<flow id="motorcycle_13_0_motorcycle" type="motorcycle" begin="93600" departLane="free" departPos="free" departSpeed="speedLimit" route="r_0" vehsPerHour="2.4586508600643997"/>
<flow id="truck_13_0_truck" type="truck" begin="93600" departLane="free" departPos="free" departSpeed="speedLimit" route="r_0" vehsPerHour="291.9918710909462"/>
<flow id="normal_car_13_1_normal_car" type="normal_car" begin="95400" departLane="free" departPos="free" departSpeed="speedLimit" route="r_0" vehsPerHour="1773.6026695162666"/>
<flow id="fast_car_13_1_fast_car" type="fast_car" begin="95400" departLane="free" departPos="free" departSpeed="speedLimit" route="r_0" vehsPerHour="121.34684029561176"/>
<flow id="van_13_1_van" type="van" begin="95400" departLane="free" departPos="free" departSpeed="speedLimit" route="r_0" vehsPerHour="216.20234483917875"/>
<flow id="bus_13_1_bus" type="bus" begin="95400" departLane="free" departPos="free" departSpeed="speedLimit" route="r_0" vehsPerHour="39.42151459554155"/>
<flow id="motorcycle_13_1_motorcycle" type="motorcycle" begin="95400" departLane="free" departPos="free" departSpeed="speedLimit" route="r_0" vehsPerHour="2.4836716997499813"/>
<flow id="truck_13_1_truck" type="truck" begin="95400" departLane="free" departPos="free" departSpeed="speedLimit" route="r_0" vehsPerHour="294.96337140224625"/>
<flow id="normal_car_14_0_normal_car" type="normal_car" begin="100800" departLane="free" departPos="free" departSpeed="speedLimit" route="r_0" vehsPerHour="1650.3711318007283"/>
<flow id="fast_car_14_0_fast_car" type="fast_car" begin="100800" departLane="free" departPos="free" departSpeed="speedLimit" route="r_0" vehsPerHour="112.91555070433672"/>
<flow id="van_14_0_van" type="van" begin="100800" departLane="free" departPos="free" departSpeed="speedLimit" route="r_0" vehsPerHour="201.18040792503118"/>
<flow id="bus_14_0_bus" type="bus" begin="100800" departLane="free" departPos="free" departSpeed="speedLimit" route="r_0" vehsPerHour="36.682471659837645"/>
<flow id="motorcycle_14_0_motorcycle" type="motorcycle" begin="100800" departLane="free" departPos="free" departSpeed="speedLimit" route="r_0" vehsPerHour="2.311103915543707"/>
<flow id="truck_14_0_truck" type="truck" begin="100800" departLane="free" departPos="free" departSpeed="speedLimit" route="r_0" vehsPerHour="274.4690462343821"/>
<flow id="normal_car_14_1_normal_car" type="normal_car" begin="102600" departLane="free" departPos="free" departSpeed="speedLimit" route="r_0" vehsPerHour="1663.9544092122787"/>
<flow id="fast_car_14_1_fast_car" type="fast_car" begin="102600" departLane="free" departPos="free" departSpeed="speedLimit" route="r_0" vehsPerHour="113.84489515283147"/>